
Spectre (R) Circuit Simulator
Version 24.1.0.288.isr5 64bit -- 3 Apr 2025
Copyright (C) 1989-2025 Cadence Design Systems, Inc. All rights reserved worldwide. Cadence and Spectre are registered trademarks of Cadence Design Systems, Inc. All others are the property of their respective holders.

Includes RSA BSAFE(R) Cryptographic or Security Protocol Software from RSA Security, Inc.

User: davidevi   Host: il2244vt26_davidevi   HostID: 11AC2C00   PID: 1050785
Memory  available: 3.0424 TB  physical: 3.2467 TB
Linux   : Rocky Linux release 8.10 (Green Obsidian)
CPU Type: Intel(R) Xeon(R) CPU E7-8857 v2 @ 3.00GHz
        Socket: Processors [Frequency]
        0:       0 [1900.0],  1 [1200.0],  2 [3600.0],  3 [2999.9],  4 [2999.9]
                 5 [1200.0],  6 [1200.0],  7 [1200.0],  8 [1700.0],  9 [1500.0]
                10 [3600.0], 11 [2999.9]
        1:      12 [1200.0], 13 [1700.0], 14 [1200.0], 15 [3381.1], 16 [1200.0]
                17 [1200.0], 18 [3381.2], 19 [1300.0], 20 [3381.1], 21 [3381.2]
                22 [3388.4], 23 [3600.0]
        2:      24 [1200.0], 25 [1200.0], 26 [1600.0], 27 [2999.9], 28 [2999.7]
                29 [1200.0], 30 [1200.0], 31 [2999.9], 32 [2900.0], 33 [1200.0]
                34 [2999.9], 35 [1200.0]
        3:      36 [2500.0], 37 [1200.0], 38 [1500.0], 39 [2999.9], 40 [1600.0]
                41 [1200.0], 42 [2999.9], 43 [3600.0], 44 [2500.0], 45 [2999.9]
                46 [1200.0], 47 [2600.0]
        
System load averages (1min, 5min, 15min) : 24.5 %, 20.0 %, 17.1 %
HPC is enabled


Simulating `input.scs' on il2244vt26_davidevi at 9:08:25 AM, Thur Apr 16, 2026 (process id: 1050785).
Current working directory: /home/davidevi/Desktop/myproject/Sim/VGA/VGA_1_tb/adexl/results/data/MonteCarlo.3/10/Linerity_MC/groupRunDataDir/netlist
Command line:
    /opt/tools/cadence/installs/SPECTRE241/tools/bin/spectre -64  \
        input.scs +escchars +log ../psf/spectre.out -format psfbin  \
        +rtsf -raw ../psf +aps +mt +lqtimeout 900 -maxw 5 -maxn 5  \
        +param /opt/pdk/ams/410/spectre/ams_range.lmts -env ade  \
        -ahdllibdir  \
        /home/davidevi/Desktop/myproject/Sim/VGA/VGA_1_tb/adexl/results/data/MonteCarlo.3/sharedData/Job472/ahdl/input.ahdlSimDB  \
        +logstatus  \
        +adespetkn=0001089D13A302B663E41FB550AF0DF415A679A322D5069144BF588C12F604E07EF416DC01A319B562BB63D360A326EA45A377CC7DCC43A262EC44A16EFD4F927CDB79D15D9175FF34986BDD0AF002BA50FD7FD707E002A700AC1C8412F74CEA0EA979D121F874D3349879D118F874D334981031BFF0D3DB5D78000036CD

Simulation Id: R9REXiVt7qMDu3HC
Licensing Information:
[09:08:25.121794] Configured Lic search path (24.01-s002): 3000@lic08.ug.kth.se:29000@lic06.ug.kth.se

Licensing Information:
[09:08:25.317001] Periodic Lic check successful

Loading /opt/tools/cadence/installs/SPECTRE241/tools.lnx86/cmi/lib/64bit/5.0/libinfineon_sh.so ...
Loading /opt/tools/cadence/installs/SPECTRE241/tools.lnx86/cmi/lib/64bit/5.0/libphilips_I_sh.so ...
Loading /opt/tools/cadence/installs/SPECTRE241/tools.lnx86/cmi/lib/64bit/5.0/libphilips_sh.so ...
Loading /opt/tools/cadence/installs/SPECTRE241/tools.lnx86/cmi/lib/64bit/5.0/libsparam_sh.so ...
Loading /opt/tools/cadence/installs/SPECTRE241/tools.lnx86/cmi/lib/64bit/5.0/libstmodels_sh.so ...

Warning from spectre.
    WARNING (SPECTRE-691): This CPU processor does not support x86 advanced vector extensions instructions. This may affect math operations and slow down the simulation.

Reading file:  /home/davidevi/Desktop/myproject/Sim/VGA/VGA_1_tb/adexl/results/data/MonteCarlo.3/10/Linerity_MC/groupRunDataDir/netlist/input.scs
Reading file:  /opt/pdk/ams/410/spectre/ams_range.lmts

Warning from spectre during read of parameter soft limits file `/opt/pdk/ams/410/spectre/ams_range.lmts', during circuit read-in.
    WARNING (SPECTRE-8360): line 1511: `ac' is an undefined primitive device.
    WARNING (SPECTRE-8360): line 1512: `ac' is an undefined primitive device.
    WARNING (SPECTRE-8360): line 1513: `ac' is an undefined primitive device.
    WARNING (SPECTRE-8360): line 1514: `ac' is an undefined primitive device.
    WARNING (SPECTRE-8360): line 1515: `ac' is an undefined primitive device.
        Further occurrences of this warning will be suppressed.

Reading file:  /opt/tools/cadence/installs/SPECTRE241/tools.lnx86/spectre/etc/configs/spectre.cfg
Reading file:  /opt/pdk/ams/410/spectre/c35/soac/soac.scs
Reading file:  /opt/pdk/ams/410/spectre/c35/soac/processOption.scs
Reading file:  /opt/pdk/ams/410/spectre/c35/soac/process.scs
Reading file:  /opt/pdk/ams/410/spectre/c35/soac/soac.va

Warning from spectre during AHDL read-in.
    WARNING (VACOMP-2435): The environment variable CDS_AHDLCMI_ENABLE is no longer supported. Therefore, the simulator will use the default compiled C code flow.

Reading link:  /opt/tools/cadence/installs/SPECTRE241/tools.lnx86/spectre/etc/ahdl/constants.h
Reading file:  /opt/tools/cadence/installs/SPECTRE241/tools.lnx86/spectre/etc/ahdl/constants.vams
Reading link:  /opt/tools/cadence/installs/SPECTRE241/tools.lnx86/spectre/etc/ahdl/discipline.h
Reading file:  /opt/tools/cadence/installs/SPECTRE241/tools.lnx86/spectre/etc/ahdl/disciplines.vams
Reading file:  /opt/pdk/ams/410/spectre/c35/processOption/C35B4C3.scs
Reading file:  /opt/pdk/ams/410/spectre/c35/soac/cmos53.scs
Reading file:  /opt/pdk/ams/410/spectre/c35/soac/res.scs
Reading file:  /opt/pdk/ams/410/spectre/c35/soac/cap.scs
Reading file:  /opt/pdk/ams/410/spectre/c35/soac/bip.scs
Reading file:  /opt/pdk/ams/410/spectre/c35/soac/ind.scs
Reading file:  /opt/pdk/ams/410/spectre/c35/soac/esddiode.scs
Time for NDB Parsing: CPU = 171.601 ms, elapsed = 343.675 ms.
Time accumulated: CPU = 371.698 ms, elapsed = 343.678 ms.
Peak resident memory used = 175 Mbytes.

Existing shared object for module modn_ahdl is up to date.
Installed compiled interface for modn_ahdl.
Existing shared object for module modp_ahdl is up to date.
Installed compiled interface for modp_ahdl.
Existing shared object for module cpoly_ahdl is up to date.
Installed compiled interface for cpoly_ahdl.
Existing shared object for module rpolyh_ahdl is up to date.
Installed compiled interface for rpolyh_ahdl.
Existing shared object for module bsource_19b458 is up to date.
Installed compiled interface for bsource_19b458.
Time for Elaboration: CPU = 61.185 ms, elapsed = 63.489 ms.
Time accumulated: CPU = 433.065 ms, elapsed = 407.347 ms.
Peak resident memory used = 188 Mbytes.


Notice from spectre during hierarchy flattening.
    The value 'psf' specified for the 'checklimitdest' option will no longer be supported in future releases. Use 'spectre -h' to see other recommended values for the 'checklimitdest' option.


*****************************************************************************************
* 
* INFO: AMS_processOption = C35B4C3
* 
* INFO: Valid Modules  PIP VG5 HIRES
* 
*****************************************************************************************


Time for EDB Visiting: CPU = 9.913 ms, elapsed = 9.93705 ms.
Time accumulated: CPU = 443.305 ms, elapsed = 417.609 ms.
Peak resident memory used = 191 Mbytes.

Loading /opt/tools/cadence/installs/SPECTRE241/tools.lnx86/mdl/lib/64bit/libSpectreEH_sh.so ...

Warning from spectre during initial setup.
    WARNING (SPECTRE-16460): SOAC_cvarm_vspsub:Specified subcircuit master `cvarm' was not found.
    WARNING (SPECTRE-16462): SOAC_cvarm_vspsub:Error in specification of subcircuit master. Assert is ignored.
    WARNING (SPECTRE-16460): SOAC_cvarm_vbs:Specified subcircuit master `cvarm' was not found.
    WARNING (SPECTRE-16462): SOAC_cvarm_vbs:Error in specification of subcircuit master. Assert is ignored.
    WARNING (SPECTRE-16460): SOAC_cvarm_vgb:Specified subcircuit master `cvarm' was not found.
    WARNING (SPECTRE-16462): SOAC_cvarm_vgb:Error in specification of subcircuit master. Assert is ignored.
    WARNING (SPECTRE-16460): SOAC_cvart_vspsub:Specified subcircuit master `cvart' was not found.
    WARNING (SPECTRE-16462): SOAC_cvart_vspsub:Error in specification of subcircuit master. Assert is ignored.
    WARNING (SPECTRE-16460): SOAC_cvart_vbs:Specified subcircuit master `cvart' was not found.
        Further occurrences of this warning will be suppressed.
    WARNING (SPECTRE-16462): SOAC_cvart_vbs:Error in specification of subcircuit master. Assert is ignored.
        Further occurrences of this warning will be suppressed.
Notice from spectre during topology check.
    Only one connection to the following 54 nodes:
        I0.MN6.psub!
        I0.MN5.psub!
        I0.MN4.psub!
        I0.MN3.psub!
        I0.MN2.psub!
        Further occurrences of this notice will be suppressed.
Notice from spectre during initial setup.
    Multithreading is disabled due to the size of the design being too small.


Netlist title:
        // Point Netlist Generated on: Apr 16 09:08:24 2026


Global user options:
         psfversion = 1.4.0
            vabstol = 1e-06
            iabstol = 1e-12
               temp = -40
           homotopy = 5
              limit = delta
         compatible = spice2
               gmin = 1e-12
             rforce = 1
           maxnotes = 5
           maxwarns = 5
             digits = 5
               cols = 80
             pivrel = 0.001
           sensfile = ../psf/sens.output
     checklimitdest = psf
     enable_pre_ver = yes
      ignorezerovar = yes
               save = allpub
             reltol = 0.0001
               tnom = 27
             scalem = 1
              scale = 1

Scoped user options:

Circuit inventory:
              nodes 88
            bsim3v3 35    
     bsource_19b458 2     
          capacitor 38    
         cpoly_ahdl 17    
            isource 1     
          modn_ahdl 19    
          modp_ahdl 16    
           resistor 1     
        rpolyh_ahdl 2     
            vsource 8     

Analysis and control statement inventory:
                 dc 1     
               info 8     
         montecarlo 1     
               tran 1     

Output statements:
             .probe 0     
           .measure 0     
               save 0     

Design checks inventory:
          paramtest 55    
             assert 175   


Notice from spectre during initial setup.
    APS enabled.
    1 notice suppressed.
    72 warnings suppressed.

Time for parsing: CPU = 19.357 ms, elapsed = 638.123 ms.
Time accumulated: CPU = 462.779 ms, elapsed = 1.05585 s.
Peak resident memory used = 198 Mbytes.

~~~~~~~~~~~~~~~~~~~~~~
Pre-Simulation Summary
~~~~~~~~~~~~~~~~~~~~~~
   -   (APS) Multi-threading. The recommended number of threads is 1, consider adding +mt=1 on command line.
~~~~~~~~~~~~~~~~~~~~~~

*************************************************
Monte Carlo Analysis `mc1': iteration = (1 -> 50)
*************************************************
Important parameter values:
    seed = 12345
    sampling = lds
    variations = all
    firstrun = 1
    numruns = 50
    nullmfactorcorrelation = no
    donominal = yes
    method = standard

**** Performing nominal run for `mc1'

******************
DC Analysis `dcOp'
******************

Notice from spectre during DC analysis `dcOp', during Monte Carlo analysis `mc1'.
    No checklimit analysis defined for asserts. A default checklimit analysis 'SpectreChecklimitAnal' has been created with all asserts enabled.


Opening the PSF file ../psf/nom/dcOp.dc ...
Important parameter values:
    reltol = 100e-06
    abstol(V) = 1 uV
    abstol(I) = 1 pA
    temp = -40 C
    tnom = 27 C
    tempeffects = all
    gmindc = 1 pS
    rabsshort = 1 mOhm

Notice from spectre during DC analysis `dcOp', during Monte Carlo analysis `mc1'.
    GminDC = 1 pS is large enough to noticeably affect the DC solution.
        dV(vout) = -223.986 uV
        Use the `gmin_check' option to eliminate or expand this report.
    Bad pivoting is found during DC analysis. Option dc_pivot_check=yes is recommended for possible improvement of convergence.


Maximum value achieved for any signal of each quantity: 
V: V(S<0>) = 3.3 V
I: I(V0:p) = 6.468 uA
Maximum value of each quantity, excluding Verilog-A modules or dangling current sources:
V: V(vout_filt) = 1.6 V
I: I(V0:p) = 6.468 uA

Warning from spectre during check, during DC analysis `dcOp', during Monte Carlo analysis `mc1'.
    WARNING (CMI-2943): Parameter checks have been ignored because the valid value for parameter 'trise' could not be found in 'C1'.
    WARNING (CMI-2943): Parameter checks have been ignored because the valid value for parameter 'trise' could not be found in 'I0.R2.CM'.
    WARNING (CMI-2943): Parameter checks have been ignored because the valid value for parameter 'trise' could not be found in 'I0.R2.CS1'.
    WARNING (CMI-2943): Parameter checks have been ignored because the valid value for parameter 'trise' could not be found in 'I0.R2.CS0'.
    WARNING (CMI-2943): Parameter checks have been ignored because the valid value for parameter 'trise' could not be found in 'I0.C8<3>.C1'.
        Further occurrences of this warning will be suppressed.

Convergence achieved in 19 iterations.
DC simulation time: CPU = 89.3 ms, elapsed = 94.378 ms.
Total time required for dc analysis `dcOp': CPU = 89.433 ms, elapsed = 94.507 ms, util. = 94.6%.
Time accumulated: CPU = 575.423 ms, elapsed = 1.17452 s.
Peak resident memory used = 206 Mbytes.


Notice from spectre during Monte Carlo analysis `mc1'.
    34 warnings suppressed.

dcOpInfo: writing operating point information to rawfile.

Opening the PSF file ../psf/nom/dcOpInfo.info ...

************************************************
Transient Analysis `tran': time = (0 s -> 40 ms)
************************************************

Notice from spectre during IC analysis, during transient analysis `tran', during Monte Carlo analysis `mc1'.
    GminDC = 1 pS is large enough to noticeably affect the DC solution.
        dV(vout) = -223.986 uV
        Use the `gmin_check' option to eliminate or expand this report.
    Bad pivoting is found during DC analysis. Option dc_pivot_check=yes is recommended for possible improvement of convergence.
Warning from spectre during check, during IC analysis, during transient analysis `tran', during Monte Carlo analysis `mc1'.
    WARNING (CMI-2943): Parameter checks have been ignored because the valid value for parameter 'trise' could not be found in 'C1'.
    WARNING (CMI-2943): Parameter checks have been ignored because the valid value for parameter 'trise' could not be found in 'I0.R2.CM'.
    WARNING (CMI-2943): Parameter checks have been ignored because the valid value for parameter 'trise' could not be found in 'I0.R2.CS1'.
    WARNING (CMI-2943): Parameter checks have been ignored because the valid value for parameter 'trise' could not be found in 'I0.R2.CS0'.
    WARNING (CMI-2943): Parameter checks have been ignored because the valid value for parameter 'trise' could not be found in 'I0.C8<3>.C1'.
        Further occurrences of this warning will be suppressed.

Convergence achieved in 2 iterations.
DC simulation time: CPU = 1.138 ms, elapsed = 1.13893 ms.

Opening the PSF file ../psf/nom/tran.tran.tran ...
Important parameter values:
    start = 0 s
    outputstart = 0 s
    stop = 40 ms
    step = 40 us
    maxstep = 400 us
    ic = all
    useprevic = no
    skipdc = no
    reltol = 10e-06
    abstol(V) = 1 uV
    abstol(I) = 1 pA
    temp = -40 C
    tnom = 27 C
    tempeffects = all
    errpreset = conservative
    method = gear2only
    lteratio = 10
    relref = alllocal
    cmin = 0 F
    gmin = 1 pS
    rabsshort = 1 mOhm


Notice from spectre during transient analysis `tran', during Monte Carlo analysis `mc1'.
    Multithreading is disabled due to the size of the design being too small.


Output and IC/nodeset summary:
                 save   8       (current)
                 save   87      (voltage)

    tran: time = 1.026 ms    (2.57 %), step = 47.98 us     (120 m%)
    tran: time = 3.04 ms      (7.6 %), step = 47.05 us     (118 m%)
    tran: time = 5.007 ms    (12.5 %), step = 49.76 us     (124 m%)
    tran: time = 7.02 ms     (17.5 %), step = 48.5 us      (121 m%)
    tran: time = 9.034 ms    (22.6 %), step = 47.45 us     (119 m%)
    tran: time = 11 ms       (27.5 %), step = 50 us        (125 m%)
    tran: time = 13.01 ms    (32.5 %), step = 49.05 us     (123 m%)
    tran: time = 15.03 ms    (37.6 %), step = 47.9 us      (120 m%)
    tran: time = 17.04 ms    (42.6 %), step = 46.99 us     (117 m%)
    tran: time = 19.01 ms    (47.5 %), step = 49.65 us     (124 m%)
    tran: time = 21.02 ms    (52.6 %), step = 48.4 us      (121 m%)
    tran: time = 23.03 ms    (57.6 %), step = 47.37 us     (118 m%)
    tran: time = 25 ms       (62.5 %), step = 50 us        (125 m%)
    tran: time = 27.01 ms    (67.5 %), step = 48.94 us     (122 m%)
    tran: time = 29.03 ms    (72.6 %), step = 47.8 us      (120 m%)
    tran: time = 31.04 ms    (77.6 %), step = 46.91 us     (117 m%)
    tran: time = 33.01 ms    (82.5 %), step = 49.52 us     (124 m%)
    tran: time = 35.02 ms    (87.6 %), step = 48.3 us      (121 m%)
    tran: time = 37.04 ms    (92.6 %), step = 47.29 us     (118 m%)
    tran: time = 39 ms       (97.5 %), step = 50 us        (125 m%)
Number of accepted tran steps =             851

Maximum value achieved for any signal of each quantity: 
V: V(S<0>) = 3.3 V
I: I(V0:p) = 6.468 uA
Maximum value of each quantity, excluding Verilog-A modules or dangling current sources:
V: V(vout_filt) = 1.614 V
I: I(V0:p) = 6.468 uA

~~~~~~~~~~~~~~~~~~~~~~~~~~~~~~~~~
Post-Transient Simulation Summary
~~~~~~~~~~~~~~~~~~~~~~~~~~~~~~~~~
   -   To further speed up simulation, consider
          add ++aps on command line
   -   Non-default settings that could significantly slow down simulation
          errpreset = conservative, default moderate
          reltol = 10e-06, default 100e-06 (conservative)
~~~~~~~~~~~~~~~~~~~~~~~~~~~~~~~~~


During simulation, the CPU load for active processors is :
         0 (6.3 %)       1 (2.5 %)       2 (2.5 %)       3 (100.0 %)
         4 (11.8 %)      5 (2.5 %)       6 (3.1 %)       7 (6.2 %)
         8 (1.9 %)       9 (2.5 %)      10 (12.4 %)     11 (100.0 %)
        12 (71.3 %)     13 (3.1 %)      14 (3.7 %)      15 (5.6 %)
        16 (34.4 %)     17 (2.5 %)      18 (100.0 %)    19 (36.4 %)
        20 (16.8 %)     21 (65.0 %)     22 (20.9 %)     23 (64.2 %)
        24 (2.5 %)      25 (2.5 %)      26 (21.0 %)     27 (36.9 %)
        28 (60.5 %)     29 (3.7 %)      30 (1.9 %)      31 (100.0 %)
        32 (1.9 %)      33 (9.9 %)      34 (5.6 %)      35 (5.0 %)
        36 (9.3 %)      37 (64.0 %)     38 (4.4 %)      39 (100.0 %)
        40 (14.3 %)     41 (3.8 %)      42 (68.1 %)     43 (19.4 %)
        44 (40.5 %)     45 (2.5 %)      46 (5.0 %)      47 (6.4 %)
        Total: 1264.4%
Initial condition solution time: CPU = 1.19 ms, elapsed = 1.19495 ms.
Intrinsic tran analysis time:    CPU = 506.897 ms, elapsed = 508.589 ms.
Total time required for tran analysis `tran': CPU = 510.427 ms, elapsed = 512.908 ms, util. = 99.5%.
Time accumulated: CPU = 1.0951 s, elapsed = 1.69934 s.
Peak resident memory used = 209 Mbytes.


Notice from spectre during transient analysis `tran', during Monte Carlo analysis `mc1'.
    34 warnings suppressed.

finalTimeOP: writing operating point information to rawfile.

Opening the PSF file ../psf/nom/finalTimeOP.info ...
modelParameter: writing model parameter values to rawfile.

Opening the PSF file ../psf/nom/modelParameter.info ...
element: writing instance parameter values to rawfile.

Opening the PSF file ../psf/nom/element.info ...
outputParameter: writing output parameter values to rawfile.

Opening the PSF file ../psf/nom/outputParameter.info ...
designParamVals: writing netlist parameters to rawfile.

Opening the PSFASCII file ../psf/nom/designParamVals.info ...
primitives: writing primitives to rawfile.

Opening the PSFASCII file ../psf/nom/primitives.info.primitives ...
subckts: writing subcircuits to rawfile.

Opening the PSFASCII file ../psf/nom/subckts.info.subckts ...
Opening iteration number and data-directory mapping file:  /home/davidevi/Desktop/myproject/Sim/VGA/VGA_1_tb/adexl/results/data/MonteCarlo.3/10/Linerity_MC/groupRunDataDir/netlist/../psf/mc1.mapping

Statistical parameters:
    Defined process parameters: 629
    Defined mismatch parameters (subckt based): 86
    Non-referenced mismatch parameters: 80
    Number of random variables: 718
    Gaussian truncation for process parameters: 4.00 sigma
    Gaussian truncation for mismatch parameters: 4.00 sigma


Opening the PSF file ../psf/mc1_dcOp.montecarlo ...

Opening the PSF file ../psf/mc1_dcOpInfo.montecarlo ...

Opening the PSF file ../psf/mc1_tran.montecarlo ...

Opening the PSF file ../psf/mc1_finalTimeOP.montecarlo ...

Opening the PSF file ../psf/mc1_modelParameter.montecarlo ...

Opening the PSF file ../psf/mc1_element.montecarlo ...

Opening the PSF file ../psf/mc1_outputParameter.montecarlo ...

Opening the PSF file ../psf/mc1_designParamVals.montecarlo ...

Opening the PSF file ../psf/mc1_primitives.montecarlo ...

Opening the PSF file ../psf/mc1_subckts.montecarlo ...

**** Performing monte carlo loop for `mc1'

1   0.00% 

*****************************************************************************************
* 
* INFO: AMS_processOption = C35B4C3
* 
* INFO: Valid Modules  PIP VG5 HIRES
* 
*****************************************************************************************


******************
DC Analysis `dcOp'
******************

Opening the PSF file ../psf/mc1_separate/001/dcOp.dc ...
Important parameter values:
    reltol = 100e-06
    abstol(V) = 1 uV
    abstol(I) = 1 pA
    temp = -40 C
    tnom = 27 C
    tempeffects = all
    gmindc = 1 pS
    rabsshort = 1 mOhm

Notice from spectre at iteration = 1 during DC analysis `dcOp', during Monte Carlo analysis `mc1'.
    GminDC = 1 pS is large enough to noticeably affect the DC solution.
        dV(vout) = -223.99 uV
        Use the `gmin_check' option to eliminate or expand this report.
    Bad pivoting is found during DC analysis. Option dc_pivot_check=yes is recommended for possible improvement of convergence.


Maximum value achieved for any signal of each quantity: 
V: V(S<0>) = 3.3 V
I: I(V0:p) = 6.22 uA
Maximum value of each quantity, excluding Verilog-A modules or dangling current sources:
V: V(vout_filt) = 1.6 V
I: I(V0:p) = 6.22 uA

Warning from spectre at iteration = 1 during check, during DC analysis `dcOp', during Monte Carlo analysis `mc1'.
    WARNING (CMI-2943): Parameter checks have been ignored because the valid value for parameter 'trise' could not be found in 'C1'.
    WARNING (CMI-2943): Parameter checks have been ignored because the valid value for parameter 'trise' could not be found in 'I0.R2.CM'.
    WARNING (CMI-2943): Parameter checks have been ignored because the valid value for parameter 'trise' could not be found in 'I0.R2.CS1'.
    WARNING (CMI-2943): Parameter checks have been ignored because the valid value for parameter 'trise' could not be found in 'I0.R2.CS0'.
    WARNING (CMI-2943): Parameter checks have been ignored because the valid value for parameter 'trise' could not be found in 'I0.C8<3>.C1'.
        Further occurrences of this warning will be suppressed.

Convergence achieved in 19 iterations.
DC simulation time: CPU = 5.99 ms, elapsed = 7.11513 ms.
Total time required for dc analysis `dcOp': CPU = 6.558 ms, elapsed = 7.68113 ms, util. = 85.4%.
Time accumulated: CPU = 1.18468 s, elapsed = 1.80491 s.
Peak resident memory used = 212 Mbytes.


Notice from spectre at iteration = 1 during Monte Carlo analysis `mc1'.
    34 warnings suppressed.

dcOpInfo: writing operating point information to rawfile.

Opening the PSF file ../psf/mc1_separate/001/dcOpInfo.info ...

************************************************
Transient Analysis `tran': time = (0 s -> 40 ms)
************************************************

Opening the PSF file ../psf/mc1_separate/001/tran.tran.tran ...

Notice from spectre at iteration = 1 during IC analysis, during transient analysis `tran', during Monte Carlo analysis `mc1'.
    GminDC = 1 pS is large enough to noticeably affect the DC solution.
        dV(vout) = -223.99 uV
        Use the `gmin_check' option to eliminate or expand this report.
    Bad pivoting is found during DC analysis. Option dc_pivot_check=yes is recommended for possible improvement of convergence.
Warning from spectre at iteration = 1 during check, during IC analysis, during transient analysis `tran', during Monte Carlo analysis `mc1'.
    WARNING (CMI-2943): Parameter checks have been ignored because the valid value for parameter 'trise' could not be found in 'C1'.
    WARNING (CMI-2943): Parameter checks have been ignored because the valid value for parameter 'trise' could not be found in 'I0.R2.CM'.
    WARNING (CMI-2943): Parameter checks have been ignored because the valid value for parameter 'trise' could not be found in 'I0.R2.CS1'.
    WARNING (CMI-2943): Parameter checks have been ignored because the valid value for parameter 'trise' could not be found in 'I0.R2.CS0'.
    WARNING (CMI-2943): Parameter checks have been ignored because the valid value for parameter 'trise' could not be found in 'I0.C8<3>.C1'.
        Further occurrences of this warning will be suppressed.

Convergence achieved in 19 iterations.
DC simulation time: CPU = 2.94 ms, elapsed = 2.93994 ms.
Important parameter values:
    start = 0 s
    outputstart = 0 s
    stop = 40 ms
    step = 40 us
    maxstep = 400 us
    ic = all
    useprevic = no
    skipdc = no
    reltol = 10e-06
    abstol(V) = 1 uV
    abstol(I) = 1 pA
    temp = -40 C
    tnom = 27 C
    tempeffects = all
    errpreset = conservative
    method = gear2only
    lteratio = 10
    relref = alllocal
    cmin = 0 F
    gmin = 1 pS
    rabsshort = 1 mOhm


Notice from spectre at iteration = 1 during transient analysis `tran', during Monte Carlo analysis `mc1'.
    Multithreading is disabled due to the size of the design being too small.


Output and IC/nodeset summary:
                 save   8       (current)
                 save   87      (voltage)

    tran: time = 1.025 ms    (2.56 %), step = 48.11 us     (120 m%)
    tran: time = 3.038 ms     (7.6 %), step = 47.14 us     (118 m%)
    tran: time = 5.005 ms    (12.5 %), step = 49.92 us     (125 m%)
    tran: time = 7.018 ms    (17.5 %), step = 48.62 us     (122 m%)
    tran: time = 9.032 ms    (22.6 %), step = 47.54 us     (119 m%)
    tran: time = 11.05 ms    (27.6 %), step = 46.71 us     (117 m%)
    tran: time = 13.01 ms    (32.5 %), step = 49.17 us     (123 m%)
    tran: time = 15.03 ms    (37.6 %), step = 48 us        (120 m%)
    tran: time = 17.04 ms    (42.6 %), step = 47.06 us     (118 m%)
    tran: time = 19.01 ms    (47.5 %), step = 49.78 us     (124 m%)
    tran: time = 21.02 ms    (52.5 %), step = 48.51 us     (121 m%)
    tran: time = 23.03 ms    (57.6 %), step = 47.46 us     (119 m%)
    tran: time = 25 ms       (62.5 %), step = 50 us        (125 m%)
    tran: time = 27.01 ms    (67.5 %), step = 49.05 us     (123 m%)
    tran: time = 29.03 ms    (72.6 %), step = 47.9 us      (120 m%)
    tran: time = 31.04 ms    (77.6 %), step = 46.98 us     (117 m%)
    tran: time = 33.01 ms    (82.5 %), step = 49.64 us     (124 m%)
    tran: time = 35.02 ms    (87.6 %), step = 48.39 us     (121 m%)
    tran: time = 37.03 ms    (92.6 %), step = 47.36 us     (118 m%)
    tran: time = 39 ms       (97.5 %), step = 50 us        (125 m%)
Number of accepted tran steps =             851

Maximum value achieved for any signal of each quantity: 
V: V(S<0>) = 3.3 V
I: I(V0:p) = 6.221 uA
Maximum value of each quantity, excluding Verilog-A modules or dangling current sources:
V: V(vout_filt) = 1.614 V
I: I(V0:p) = 6.221 uA

~~~~~~~~~~~~~~~~~~~~~~~~~~~~~~~~~
Post-Transient Simulation Summary
~~~~~~~~~~~~~~~~~~~~~~~~~~~~~~~~~
   -   To further speed up simulation, consider
          add ++aps on command line
   -   Non-default settings that could significantly slow down simulation
          errpreset = conservative, default moderate
          reltol = 10e-06, default 100e-06 (conservative)
~~~~~~~~~~~~~~~~~~~~~~~~~~~~~~~~~


During simulation, the CPU load for active processors is :
         0 (8.7 %)       1 (4.1 %)       2 (2.7 %)       3 (100.0 %)
         4 (12.2 %)      5 (3.1 %)       6 (2.7 %)       7 (6.2 %)
         8 (4.5 %)       9 (2.7 %)      10 (10.7 %)     11 (100.0 %)
        12 (79.3 %)     13 (3.1 %)      14 (3.2 %)      15 (4.1 %)
        16 (27.6 %)     17 (26.9 %)     18 (100.0 %)    19 (52.0 %)
        20 (15.2 %)     21 (47.8 %)     22 (16.4 %)     23 (46.9 %)
        24 (2.7 %)      25 (2.2 %)      26 (21.0 %)     27 (54.3 %)
        28 (43.9 %)     29 (3.6 %)      30 (1.4 %)      31 (100.0 %)
        32 (2.2 %)      33 (7.2 %)      34 (5.9 %)      35 (4.5 %)
        36 (6.8 %)      37 (73.4 %)     38 (3.6 %)      39 (100.0 %)
        40 (11.7 %)     41 (3.2 %)      42 (51.8 %)     43 (15.8 %)
        44 (55.9 %)     45 (3.6 %)      46 (4.1 %)      47 (5.5 %)
        Total: 1264.0%
Initial condition solution time: CPU = 2.978 ms, elapsed = 2.97999 ms.
Intrinsic tran analysis time:    CPU = 505.323 ms, elapsed = 506.603 ms.
Total time required for tran analysis `tran': CPU = 510.087 ms, elapsed = 511.982 ms, util. = 99.6%.
Time accumulated: CPU = 1.70191 s, elapsed = 2.32629 s.
Peak resident memory used = 213 Mbytes.


Notice from spectre during transient analysis `tran', during Monte Carlo analysis `mc1'.
    34 warnings suppressed.

finalTimeOP: writing operating point information to rawfile.

Opening the PSF file ../psf/mc1_separate/001/finalTimeOP.info ...
modelParameter: writing model parameter values to rawfile.

Opening the PSF file ../psf/mc1_separate/001/modelParameter.info ...
element: writing instance parameter values to rawfile.

Opening the PSF file ../psf/mc1_separate/001/element.info ...
outputParameter: writing output parameter values to rawfile.

Opening the PSF file ../psf/mc1_separate/001/outputParameter.info ...
designParamVals: writing netlist parameters to rawfile.

Opening the PSFASCII file ../psf/mc1_separate/001/designParamVals.info ...
primitives: writing primitives to rawfile.

Opening the PSFASCII file ../psf/mc1_separate/001/primitives.info.primitives ...
subckts: writing subcircuits to rawfile.

Opening the PSFASCII file ../psf/mc1_separate/001/subckts.info.subckts ...
2   2.04% 

*****************************************************************************************
* 
* INFO: AMS_processOption = C35B4C3
* 
* INFO: Valid Modules  PIP VG5 HIRES
* 
*****************************************************************************************


******************
DC Analysis `dcOp'
******************

Opening the PSF file ../psf/mc1_separate/002/dcOp.dc ...
Important parameter values:
    reltol = 100e-06
    abstol(V) = 1 uV
    abstol(I) = 1 pA
    temp = -40 C
    tnom = 27 C
    tempeffects = all
    gmindc = 1 pS
    rabsshort = 1 mOhm

Notice from spectre during DC analysis `dcOp', during Monte Carlo analysis `mc1'.
    GminDC = 1 pS is large enough to noticeably affect the DC solution.
        dV(vout) = -223.99 uV
        Use the `gmin_check' option to eliminate or expand this report.
    Bad pivoting is found during DC analysis. Option dc_pivot_check=yes is recommended for possible improvement of convergence.


Maximum value achieved for any signal of each quantity: 
V: V(S<0>) = 3.3 V
I: I(V0:p) = 6.5 uA
Maximum value of each quantity, excluding Verilog-A modules or dangling current sources:
V: V(vout_filt) = 1.6 V
I: I(V0:p) = 6.5 uA

Warning from spectre during check, during DC analysis `dcOp', during Monte Carlo analysis `mc1'.
    WARNING (CMI-2943): Parameter checks have been ignored because the valid value for parameter 'trise' could not be found in 'C1'.
    WARNING (CMI-2943): Parameter checks have been ignored because the valid value for parameter 'trise' could not be found in 'I0.R2.CM'.
    WARNING (CMI-2943): Parameter checks have been ignored because the valid value for parameter 'trise' could not be found in 'I0.R2.CS1'.
    WARNING (CMI-2943): Parameter checks have been ignored because the valid value for parameter 'trise' could not be found in 'I0.R2.CS0'.
    WARNING (CMI-2943): Parameter checks have been ignored because the valid value for parameter 'trise' could not be found in 'I0.C8<3>.C1'.
        Further occurrences of this warning will be suppressed.

Convergence achieved in 19 iterations.
DC simulation time: CPU = 5.559 ms, elapsed = 6.79898 ms.
Total time required for dc analysis `dcOp': CPU = 6.01 ms, elapsed = 7.25007 ms, util. = 82.9%.
Time accumulated: CPU = 1.74584 s, elapsed = 2.38194 s.
Peak resident memory used = 213 Mbytes.


Notice from spectre during Monte Carlo analysis `mc1'.
    34 warnings suppressed.

dcOpInfo: writing operating point information to rawfile.

Opening the PSF file ../psf/mc1_separate/002/dcOpInfo.info ...

************************************************
Transient Analysis `tran': time = (0 s -> 40 ms)
************************************************

Opening the PSF file ../psf/mc1_separate/002/tran.tran.tran ...

Notice from spectre during IC analysis, during transient analysis `tran', during Monte Carlo analysis `mc1'.
    GminDC = 1 pS is large enough to noticeably affect the DC solution.
        dV(vout) = -223.99 uV
        Use the `gmin_check' option to eliminate or expand this report.
    Bad pivoting is found during DC analysis. Option dc_pivot_check=yes is recommended for possible improvement of convergence.
Warning from spectre during check, during IC analysis, during transient analysis `tran', during Monte Carlo analysis `mc1'.
    WARNING (CMI-2943): Parameter checks have been ignored because the valid value for parameter 'trise' could not be found in 'C1'.
    WARNING (CMI-2943): Parameter checks have been ignored because the valid value for parameter 'trise' could not be found in 'I0.R2.CM'.
    WARNING (CMI-2943): Parameter checks have been ignored because the valid value for parameter 'trise' could not be found in 'I0.R2.CS1'.
    WARNING (CMI-2943): Parameter checks have been ignored because the valid value for parameter 'trise' could not be found in 'I0.R2.CS0'.
    WARNING (CMI-2943): Parameter checks have been ignored because the valid value for parameter 'trise' could not be found in 'I0.C8<3>.C1'.
        Further occurrences of this warning will be suppressed.

Convergence achieved in 19 iterations.
DC simulation time: CPU = 2.844 ms, elapsed = 2.85816 ms.
Important parameter values:
    start = 0 s
    outputstart = 0 s
    stop = 40 ms
    step = 40 us
    maxstep = 400 us
    ic = all
    useprevic = no
    skipdc = no
    reltol = 10e-06
    abstol(V) = 1 uV
    abstol(I) = 1 pA
    temp = -40 C
    tnom = 27 C
    tempeffects = all
    errpreset = conservative
    method = gear2only
    lteratio = 10
    relref = alllocal
    cmin = 0 F
    gmin = 1 pS
    rabsshort = 1 mOhm


Notice from spectre during transient analysis `tran', during Monte Carlo analysis `mc1'.
    Multithreading is disabled due to the size of the design being too small.


Output and IC/nodeset summary:
                 save   8       (current)
                 save   87      (voltage)

    tran: time = 1.026 ms    (2.57 %), step = 47.96 us     (120 m%)
    tran: time = 3.04 ms      (7.6 %), step = 47.03 us     (118 m%)
    tran: time = 5.007 ms    (12.5 %), step = 49.73 us     (124 m%)
    tran: time = 7.02 ms     (17.6 %), step = 48.47 us     (121 m%)
    tran: time = 9.034 ms    (22.6 %), step = 47.42 us     (119 m%)
    tran: time = 11 ms       (27.5 %), step = 50 us        (125 m%)
    tran: time = 13.01 ms    (32.5 %), step = 49.01 us     (123 m%)
    tran: time = 15.03 ms    (37.6 %), step = 47.86 us     (120 m%)
    tran: time = 17.04 ms    (42.6 %), step = 46.95 us     (117 m%)
    tran: time = 19.01 ms    (47.5 %), step = 49.59 us     (124 m%)
    tran: time = 21.02 ms    (52.6 %), step = 48.35 us     (121 m%)
    tran: time = 23.04 ms    (57.6 %), step = 47.33 us     (118 m%)
    tran: time = 25 ms       (62.5 %), step = 50 us        (125 m%)
    tran: time = 27.02 ms    (67.5 %), step = 48.88 us     (122 m%)
    tran: time = 29.03 ms    (72.6 %), step = 47.75 us     (119 m%)
    tran: time = 31.04 ms    (77.6 %), step = 46.87 us     (117 m%)
    tran: time = 33.01 ms    (82.5 %), step = 49.45 us     (124 m%)
    tran: time = 35.02 ms    (87.6 %), step = 48.24 us     (121 m%)
    tran: time = 37.04 ms    (92.6 %), step = 47.24 us     (118 m%)
    tran: time = 39 ms       (97.5 %), step = 50 us        (125 m%)
Number of accepted tran steps =             851

Maximum value achieved for any signal of each quantity: 
V: V(S<0>) = 3.3 V
I: I(V0:p) = 6.5 uA
Maximum value of each quantity, excluding Verilog-A modules or dangling current sources:
V: V(vout_filt) = 1.614 V
I: I(V0:p) = 6.5 uA

~~~~~~~~~~~~~~~~~~~~~~~~~~~~~~~~~
Post-Transient Simulation Summary
~~~~~~~~~~~~~~~~~~~~~~~~~~~~~~~~~
   -   To further speed up simulation, consider
          add ++aps on command line
   -   Non-default settings that could significantly slow down simulation
          errpreset = conservative, default moderate
          reltol = 10e-06, default 100e-06 (conservative)
~~~~~~~~~~~~~~~~~~~~~~~~~~~~~~~~~


During simulation, the CPU load for active processors is :
         0 (8.0 %)       1 (3.6 %)       2 (2.5 %)       3 (100.0 %)
         4 (10.0 %)      5 (3.6 %)       6 (2.5 %)       7 (6.4 %)
         8 (6.0 %)       9 (2.9 %)      10 (8.6 %)      11 (100.0 %)
        12 (83.5 %)     13 (2.9 %)      14 (3.2 %)      15 (3.9 %)
        16 (22.0 %)     17 (37.0 %)     18 (100.0 %)    19 (61.9 %)
        20 (16.7 %)     21 (38.2 %)     22 (13.8 %)     23 (38.2 %)
        24 (2.5 %)      25 (3.2 %)      26 (20.9 %)     27 (61.4 %)
        28 (35.4 %)     29 (3.6 %)      30 (1.8 %)      31 (100.0 %)
        32 (3.2 %)      33 (6.4 %)      34 (9.3 %)      35 (3.6 %)
        36 (6.1 %)      37 (60.6 %)     38 (2.9 %)      39 (100.0 %)
        40 (11.1 %)     41 (4.3 %)      42 (61.3 %)     43 (13.4 %)
        44 (64.5 %)     45 (4.0 %)      46 (9.0 %)      47 (4.4 %)
        Total: 1268.3%
Initial condition solution time: CPU = 2.878 ms, elapsed = 2.89392 ms.
Intrinsic tran analysis time:    CPU = 504.852 ms, elapsed = 506.39 ms.
Total time required for tran analysis `tran': CPU = 509.461 ms, elapsed = 511.757 ms, util. = 99.6%.
Time accumulated: CPU = 2.26213 s, elapsed = 2.90279 s.
Peak resident memory used = 213 Mbytes.


Notice from spectre during transient analysis `tran', during Monte Carlo analysis `mc1'.
    34 warnings suppressed.

finalTimeOP: writing operating point information to rawfile.

Opening the PSF file ../psf/mc1_separate/002/finalTimeOP.info ...
modelParameter: writing model parameter values to rawfile.

Opening the PSF file ../psf/mc1_separate/002/modelParameter.info ...
element: writing instance parameter values to rawfile.

Opening the PSF file ../psf/mc1_separate/002/element.info ...
outputParameter: writing output parameter values to rawfile.

Opening the PSF file ../psf/mc1_separate/002/outputParameter.info ...
designParamVals: writing netlist parameters to rawfile.

Opening the PSFASCII file ../psf/mc1_separate/002/designParamVals.info ...
primitives: writing primitives to rawfile.

Opening the PSFASCII file ../psf/mc1_separate/002/primitives.info.primitives ...
subckts: writing subcircuits to rawfile.

Opening the PSFASCII file ../psf/mc1_separate/002/subckts.info.subckts ...
3   4.08% 

*****************************************************************************************
* 
* INFO: AMS_processOption = C35B4C3
* 
* INFO: Valid Modules  PIP VG5 HIRES
* 
*****************************************************************************************


******************
DC Analysis `dcOp'
******************

Opening the PSF file ../psf/mc1_separate/003/dcOp.dc ...
Important parameter values:
    reltol = 100e-06
    abstol(V) = 1 uV
    abstol(I) = 1 pA
    temp = -40 C
    tnom = 27 C
    tempeffects = all
    gmindc = 1 pS
    rabsshort = 1 mOhm

Notice from spectre during DC analysis `dcOp', during Monte Carlo analysis `mc1'.
    GminDC = 1 pS is large enough to noticeably affect the DC solution.
        dV(vout) = -223.991 uV
        Use the `gmin_check' option to eliminate or expand this report.
    Bad pivoting is found during DC analysis. Option dc_pivot_check=yes is recommended for possible improvement of convergence.


Maximum value achieved for any signal of each quantity: 
V: V(S<0>) = 3.3 V
I: I(V0:p) = 6.371 uA
Maximum value of each quantity, excluding Verilog-A modules or dangling current sources:
V: V(vout_filt) = 1.6 V
I: I(V0:p) = 6.371 uA

Warning from spectre during check, during DC analysis `dcOp', during Monte Carlo analysis `mc1'.
    WARNING (CMI-2943): Parameter checks have been ignored because the valid value for parameter 'trise' could not be found in 'C1'.
    WARNING (CMI-2943): Parameter checks have been ignored because the valid value for parameter 'trise' could not be found in 'I0.R2.CM'.
    WARNING (CMI-2943): Parameter checks have been ignored because the valid value for parameter 'trise' could not be found in 'I0.R2.CS1'.
    WARNING (CMI-2943): Parameter checks have been ignored because the valid value for parameter 'trise' could not be found in 'I0.R2.CS0'.
    WARNING (CMI-2943): Parameter checks have been ignored because the valid value for parameter 'trise' could not be found in 'I0.C8<3>.C1'.
        Further occurrences of this warning will be suppressed.

Convergence achieved in 22 iterations.
DC simulation time: CPU = 5.658 ms, elapsed = 7.09605 ms.
Total time required for dc analysis `dcOp': CPU = 6.067 ms, elapsed = 7.50303 ms, util. = 80.9%.
Time accumulated: CPU = 2.30612 s, elapsed = 2.95933 s.
Peak resident memory used = 213 Mbytes.


Notice from spectre during Monte Carlo analysis `mc1'.
    34 warnings suppressed.

dcOpInfo: writing operating point information to rawfile.

Opening the PSF file ../psf/mc1_separate/003/dcOpInfo.info ...

************************************************
Transient Analysis `tran': time = (0 s -> 40 ms)
************************************************

Opening the PSF file ../psf/mc1_separate/003/tran.tran.tran ...

Notice from spectre during IC analysis, during transient analysis `tran', during Monte Carlo analysis `mc1'.
    GminDC = 1 pS is large enough to noticeably affect the DC solution.
        dV(vout) = -223.991 uV
        Use the `gmin_check' option to eliminate or expand this report.
    Bad pivoting is found during DC analysis. Option dc_pivot_check=yes is recommended for possible improvement of convergence.
Warning from spectre during check, during IC analysis, during transient analysis `tran', during Monte Carlo analysis `mc1'.
    WARNING (CMI-2943): Parameter checks have been ignored because the valid value for parameter 'trise' could not be found in 'C1'.
    WARNING (CMI-2943): Parameter checks have been ignored because the valid value for parameter 'trise' could not be found in 'I0.R2.CM'.
    WARNING (CMI-2943): Parameter checks have been ignored because the valid value for parameter 'trise' could not be found in 'I0.R2.CS1'.
    WARNING (CMI-2943): Parameter checks have been ignored because the valid value for parameter 'trise' could not be found in 'I0.R2.CS0'.
    WARNING (CMI-2943): Parameter checks have been ignored because the valid value for parameter 'trise' could not be found in 'I0.C8<3>.C1'.
        Further occurrences of this warning will be suppressed.

Convergence achieved in 22 iterations.
DC simulation time: CPU = 3.154 ms, elapsed = 3.15404 ms.
Important parameter values:
    start = 0 s
    outputstart = 0 s
    stop = 40 ms
    step = 40 us
    maxstep = 400 us
    ic = all
    useprevic = no
    skipdc = no
    reltol = 10e-06
    abstol(V) = 1 uV
    abstol(I) = 1 pA
    temp = -40 C
    tnom = 27 C
    tempeffects = all
    errpreset = conservative
    method = gear2only
    lteratio = 10
    relref = alllocal
    cmin = 0 F
    gmin = 1 pS
    rabsshort = 1 mOhm


Notice from spectre during transient analysis `tran', during Monte Carlo analysis `mc1'.
    Multithreading is disabled due to the size of the design being too small.


Output and IC/nodeset summary:
                 save   8       (current)
                 save   87      (voltage)

    tran: time = 1.025 ms    (2.56 %), step = 48.06 us     (120 m%)
    tran: time = 3.039 ms     (7.6 %), step = 47.11 us     (118 m%)
    tran: time = 5.006 ms    (12.5 %), step = 49.87 us     (125 m%)
    tran: time = 7.019 ms    (17.5 %), step = 48.59 us     (121 m%)
    tran: time = 9.032 ms    (22.6 %), step = 47.52 us     (119 m%)
    tran: time = 11.05 ms    (27.6 %), step = 46.7 us      (117 m%)
    tran: time = 13.01 ms    (32.5 %), step = 49.16 us     (123 m%)
    tran: time = 15.03 ms    (37.6 %), step = 48 us        (120 m%)
    tran: time = 17.04 ms    (42.6 %), step = 47.06 us     (118 m%)
    tran: time = 19.01 ms    (47.5 %), step = 49.79 us     (124 m%)
    tran: time = 21.02 ms    (52.5 %), step = 48.52 us     (121 m%)
    tran: time = 23.03 ms    (57.6 %), step = 47.47 us     (119 m%)
    tran: time = 25.05 ms    (62.6 %), step = 46.66 us     (117 m%)
    tran: time = 27.01 ms    (67.5 %), step = 49.09 us     (123 m%)
    tran: time = 29.03 ms    (72.6 %), step = 47.94 us     (120 m%)
    tran: time = 31.04 ms    (77.6 %), step = 47.02 us     (118 m%)
    tran: time = 33.01 ms    (82.5 %), step = 49.71 us     (124 m%)
    tran: time = 35.02 ms    (87.6 %), step = 48.46 us     (121 m%)
    tran: time = 37.03 ms    (92.6 %), step = 47.42 us     (119 m%)
    tran: time = 39 ms       (97.5 %), step = 50 us        (125 m%)
Number of accepted tran steps =             851

Maximum value achieved for any signal of each quantity: 
V: V(S<0>) = 3.3 V
I: I(V0:p) = 6.372 uA
Maximum value of each quantity, excluding Verilog-A modules or dangling current sources:
V: V(vout_filt) = 1.614 V
I: I(V0:p) = 6.372 uA

~~~~~~~~~~~~~~~~~~~~~~~~~~~~~~~~~
Post-Transient Simulation Summary
~~~~~~~~~~~~~~~~~~~~~~~~~~~~~~~~~
   -   To further speed up simulation, consider
          add ++aps on command line
   -   Non-default settings that could significantly slow down simulation
          errpreset = conservative, default moderate
          reltol = 10e-06, default 100e-06 (conservative)
~~~~~~~~~~~~~~~~~~~~~~~~~~~~~~~~~


During simulation, the CPU load for active processors is :
         0 (8.8 %)       1 (3.6 %)       2 (3.9 %)       3 (100.0 %)
         4 (8.3 %)       5 (3.6 %)       6 (2.4 %)       7 (5.6 %)
         8 (5.6 %)       9 (2.4 %)      10 (8.0 %)      11 (100.0 %)
        12 (86.2 %)     13 (3.6 %)      14 (3.0 %)      15 (5.1 %)
        16 (28.6 %)     17 (32.5 %)     18 (100.0 %)    19 (58.3 %)
        20 (30.2 %)     21 (32.0 %)     22 (11.5 %)     23 (31.8 %)
        24 (2.4 %)      25 (18.6 %)     26 (20.6 %)     27 (67.1 %)
        28 (29.8 %)     29 (3.3 %)      30 (2.4 %)      31 (100.0 %)
        32 (3.3 %)      33 (5.7 %)      34 (10.9 %)     35 (3.0 %)
        36 (7.5 %)      37 (51.5 %)     38 (3.9 %)      39 (100.0 %)
        40 (9.8 %)      41 (3.6 %)      42 (66.9 %)     43 (11.7 %)
        44 (70.0 %)     45 (3.6 %)      46 (7.5 %)      47 (3.6 %)
        Total: 1281.3%
Initial condition solution time: CPU = 3.191 ms, elapsed = 3.19481 ms.
Intrinsic tran analysis time:    CPU = 505.775 ms, elapsed = 507.749 ms.
Total time required for tran analysis `tran': CPU = 510.831 ms, elapsed = 513.459 ms, util. = 99.5%.
Time accumulated: CPU = 2.82383 s, elapsed = 3.48243 s.
Peak resident memory used = 213 Mbytes.


Notice from spectre during transient analysis `tran', during Monte Carlo analysis `mc1'.
    34 warnings suppressed.

finalTimeOP: writing operating point information to rawfile.

Opening the PSF file ../psf/mc1_separate/003/finalTimeOP.info ...
modelParameter: writing model parameter values to rawfile.

Opening the PSF file ../psf/mc1_separate/003/modelParameter.info ...
element: writing instance parameter values to rawfile.

Opening the PSF file ../psf/mc1_separate/003/element.info ...
outputParameter: writing output parameter values to rawfile.

Opening the PSF file ../psf/mc1_separate/003/outputParameter.info ...
designParamVals: writing netlist parameters to rawfile.

Opening the PSFASCII file ../psf/mc1_separate/003/designParamVals.info ...
primitives: writing primitives to rawfile.

Opening the PSFASCII file ../psf/mc1_separate/003/primitives.info.primitives ...
subckts: writing subcircuits to rawfile.

Opening the PSFASCII file ../psf/mc1_separate/003/subckts.info.subckts ...
    mc1: iteration = 3           (4.08 %), step = 1            (2.04 %)
4   6.12% 

*****************************************************************************************
* 
* INFO: AMS_processOption = C35B4C3
* 
* INFO: Valid Modules  PIP VG5 HIRES
* 
*****************************************************************************************


******************
DC Analysis `dcOp'
******************

Opening the PSF file ../psf/mc1_separate/004/dcOp.dc ...
Important parameter values:
    reltol = 100e-06
    abstol(V) = 1 uV
    abstol(I) = 1 pA
    temp = -40 C
    tnom = 27 C
    tempeffects = all
    gmindc = 1 pS
    rabsshort = 1 mOhm

Notice from spectre during DC analysis `dcOp', during Monte Carlo analysis `mc1'.
    GminDC = 1 pS is large enough to noticeably affect the DC solution.
        dV(vout) = -223.825 uV
        Use the `gmin_check' option to eliminate or expand this report.
    Bad pivoting is found during DC analysis. Option dc_pivot_check=yes is recommended for possible improvement of convergence.


Maximum value achieved for any signal of each quantity: 
V: V(S<0>) = 3.3 V
I: I(V0:p) = 6.545 uA
Maximum value of each quantity, excluding Verilog-A modules or dangling current sources:
V: V(net1) = 1.6 V
I: I(V0:p) = 6.545 uA

Warning from spectre during check, during DC analysis `dcOp', during Monte Carlo analysis `mc1'.
    WARNING (CMI-2943): Parameter checks have been ignored because the valid value for parameter 'trise' could not be found in 'C1'.
    WARNING (CMI-2943): Parameter checks have been ignored because the valid value for parameter 'trise' could not be found in 'I0.R2.CM'.
    WARNING (CMI-2943): Parameter checks have been ignored because the valid value for parameter 'trise' could not be found in 'I0.R2.CS1'.
    WARNING (CMI-2943): Parameter checks have been ignored because the valid value for parameter 'trise' could not be found in 'I0.R2.CS0'.
    WARNING (CMI-2943): Parameter checks have been ignored because the valid value for parameter 'trise' could not be found in 'I0.C8<3>.C1'.
        Further occurrences of this warning will be suppressed.

Convergence achieved in 22 iterations.
DC simulation time: CPU = 5.62 ms, elapsed = 7.21717 ms.
Total time required for dc analysis `dcOp': CPU = 6.023 ms, elapsed = 7.61795 ms, util. = 79.1%.
Time accumulated: CPU = 2.86814 s, elapsed = 3.53937 s.
Peak resident memory used = 213 Mbytes.


Notice from spectre during Monte Carlo analysis `mc1'.
    34 warnings suppressed.

dcOpInfo: writing operating point information to rawfile.

Opening the PSF file ../psf/mc1_separate/004/dcOpInfo.info ...

************************************************
Transient Analysis `tran': time = (0 s -> 40 ms)
************************************************

Opening the PSF file ../psf/mc1_separate/004/tran.tran.tran ...

Notice from spectre during IC analysis, during transient analysis `tran', during Monte Carlo analysis `mc1'.
    GminDC = 1 pS is large enough to noticeably affect the DC solution.
        dV(vout) = -223.825 uV
        Use the `gmin_check' option to eliminate or expand this report.
    Bad pivoting is found during DC analysis. Option dc_pivot_check=yes is recommended for possible improvement of convergence.
Warning from spectre during check, during IC analysis, during transient analysis `tran', during Monte Carlo analysis `mc1'.
    WARNING (CMI-2943): Parameter checks have been ignored because the valid value for parameter 'trise' could not be found in 'C1'.
    WARNING (CMI-2943): Parameter checks have been ignored because the valid value for parameter 'trise' could not be found in 'I0.R2.CM'.
    WARNING (CMI-2943): Parameter checks have been ignored because the valid value for parameter 'trise' could not be found in 'I0.R2.CS1'.
    WARNING (CMI-2943): Parameter checks have been ignored because the valid value for parameter 'trise' could not be found in 'I0.R2.CS0'.
    WARNING (CMI-2943): Parameter checks have been ignored because the valid value for parameter 'trise' could not be found in 'I0.C8<3>.C1'.
        Further occurrences of this warning will be suppressed.

Convergence achieved in 22 iterations.
DC simulation time: CPU = 3.223 ms, elapsed = 3.22413 ms.
Important parameter values:
    start = 0 s
    outputstart = 0 s
    stop = 40 ms
    step = 40 us
    maxstep = 400 us
    ic = all
    useprevic = no
    skipdc = no
    reltol = 10e-06
    abstol(V) = 1 uV
    abstol(I) = 1 pA
    temp = -40 C
    tnom = 27 C
    tempeffects = all
    errpreset = conservative
    method = gear2only
    lteratio = 10
    relref = alllocal
    cmin = 0 F
    gmin = 1 pS
    rabsshort = 1 mOhm


Notice from spectre during transient analysis `tran', during Monte Carlo analysis `mc1'.
    Multithreading is disabled due to the size of the design being too small.


Output and IC/nodeset summary:
                 save   8       (current)
                 save   87      (voltage)

    tran: time = 1.026 ms    (2.57 %), step = 47.95 us     (120 m%)
    tran: time = 3.04 ms      (7.6 %), step = 47.04 us     (118 m%)
    tran: time = 5.006 ms    (12.5 %), step = 49.78 us     (124 m%)
    tran: time = 7.019 ms    (17.5 %), step = 48.54 us     (121 m%)
    tran: time = 9.033 ms    (22.6 %), step = 47.5 us      (119 m%)
    tran: time = 11.05 ms    (27.6 %), step = 46.69 us     (117 m%)
    tran: time = 13.01 ms    (32.5 %), step = 49.18 us     (123 m%)
    tran: time = 15.03 ms    (37.6 %), step = 48.03 us     (120 m%)
    tran: time = 17.04 ms    (42.6 %), step = 47.1 us      (118 m%)
    tran: time = 19.01 ms    (47.5 %), step = 49.89 us     (125 m%)
    tran: time = 21.02 ms    (52.5 %), step = 48.63 us     (122 m%)
    tran: time = 23.03 ms    (57.6 %), step = 47.57 us     (119 m%)
    tran: time = 25.04 ms    (62.6 %), step = 46.75 us     (117 m%)
    tran: time = 27.01 ms    (67.5 %), step = 49.27 us     (123 m%)
    tran: time = 29.02 ms    (72.6 %), step = 48.11 us     (120 m%)
    tran: time = 31.04 ms    (77.6 %), step = 47.16 us     (118 m%)
    tran: time = 33 ms       (82.5 %), step = 49.99 us     (125 m%)
    tran: time = 35.02 ms    (87.5 %), step = 48.71 us     (122 m%)
    tran: time = 37.03 ms    (92.6 %), step = 47.63 us     (119 m%)
    tran: time = 39.04 ms    (97.6 %), step = 46.79 us     (117 m%)
Number of accepted tran steps =             851

Maximum value achieved for any signal of each quantity: 
V: V(S<0>) = 3.3 V
I: I(V0:p) = 6.545 uA
Maximum value of each quantity, excluding Verilog-A modules or dangling current sources:
V: V(vout_filt) = 1.613 V
I: I(V0:p) = 6.545 uA

~~~~~~~~~~~~~~~~~~~~~~~~~~~~~~~~~
Post-Transient Simulation Summary
~~~~~~~~~~~~~~~~~~~~~~~~~~~~~~~~~
   -   To further speed up simulation, consider
          add ++aps on command line
   -   Non-default settings that could significantly slow down simulation
          errpreset = conservative, default moderate
          reltol = 10e-06, default 100e-06 (conservative)
~~~~~~~~~~~~~~~~~~~~~~~~~~~~~~~~~


During simulation, the CPU load for active processors is :
         0 (7.8 %)       1 (3.4 %)       2 (3.3 %)       3 (100.0 %)
         4 (7.4 %)       5 (3.0 %)       6 (2.3 %)       7 (5.5 %)
         8 (5.5 %)       9 (3.0 %)      10 (7.4 %)      11 (100.0 %)
        12 (88.0 %)     13 (3.0 %)      14 (2.5 %)      15 (5.8 %)
        16 (26.1 %)     17 (27.9 %)     18 (100.0 %)    19 (50.1 %)
        20 (39.9 %)     21 (28.4 %)     22 (10.1 %)     23 (27.8 %)
        24 (7.1 %)      25 (26.1 %)     26 (20.9 %)     27 (63.9 %)
        28 (26.2 %)     29 (4.3 %)      30 (2.0 %)      31 (100.0 %)
        32 (3.5 %)      33 (5.1 %)      34 (12.3 %)     35 (3.6 %)
        36 (21.2 %)     37 (50.6 %)     38 (3.8 %)      39 (100.0 %)
        40 (9.7 %)      41 (3.6 %)      42 (71.8 %)     43 (23.2 %)
        44 (61.5 %)     45 (3.3 %)      46 (6.6 %)      47 (3.4 %)
        Total: 1292.0%
Initial condition solution time: CPU = 3.255 ms, elapsed = 3.25704 ms.
Intrinsic tran analysis time:    CPU = 510.7 ms, elapsed = 512.306 ms.
Total time required for tran analysis `tran': CPU = 515.932 ms, elapsed = 518.249 ms, util. = 99.6%.
Time accumulated: CPU = 3.39103 s, elapsed = 4.06716 s.
Peak resident memory used = 214 Mbytes.


Notice from spectre during transient analysis `tran', during Monte Carlo analysis `mc1'.
    34 warnings suppressed.

finalTimeOP: writing operating point information to rawfile.

Opening the PSF file ../psf/mc1_separate/004/finalTimeOP.info ...
modelParameter: writing model parameter values to rawfile.

Opening the PSF file ../psf/mc1_separate/004/modelParameter.info ...
element: writing instance parameter values to rawfile.

Opening the PSF file ../psf/mc1_separate/004/element.info ...
outputParameter: writing output parameter values to rawfile.

Opening the PSF file ../psf/mc1_separate/004/outputParameter.info ...
designParamVals: writing netlist parameters to rawfile.

Opening the PSFASCII file ../psf/mc1_separate/004/designParamVals.info ...
primitives: writing primitives to rawfile.

Opening the PSFASCII file ../psf/mc1_separate/004/primitives.info.primitives ...
subckts: writing subcircuits to rawfile.

Opening the PSFASCII file ../psf/mc1_separate/004/subckts.info.subckts ...
    mc1: iteration = 4           (6.12 %), step = 1            (2.04 %)
5   8.16% 

*****************************************************************************************
* 
* INFO: AMS_processOption = C35B4C3
* 
* INFO: Valid Modules  PIP VG5 HIRES
* 
*****************************************************************************************


******************
DC Analysis `dcOp'
******************

Opening the PSF file ../psf/mc1_separate/005/dcOp.dc ...
Important parameter values:
    reltol = 100e-06
    abstol(V) = 1 uV
    abstol(I) = 1 pA
    temp = -40 C
    tnom = 27 C
    tempeffects = all
    gmindc = 1 pS
    rabsshort = 1 mOhm

Notice from spectre during DC analysis `dcOp', during Monte Carlo analysis `mc1'.
    GminDC = 1 pS is large enough to noticeably affect the DC solution.
        dV(vout) = -224.034 uV
        Use the `gmin_check' option to eliminate or expand this report.
    Bad pivoting is found during DC analysis. Option dc_pivot_check=yes is recommended for possible improvement of convergence.


Maximum value achieved for any signal of each quantity: 
V: V(S<0>) = 3.3 V
I: I(V0:p) = 6.438 uA
Maximum value of each quantity, excluding Verilog-A modules or dangling current sources:
V: V(vout_filt) = 1.601 V
I: I(V0:p) = 6.438 uA

Warning from spectre during check, during DC analysis `dcOp', during Monte Carlo analysis `mc1'.
    WARNING (CMI-2943): Parameter checks have been ignored because the valid value for parameter 'trise' could not be found in 'C1'.
    WARNING (CMI-2943): Parameter checks have been ignored because the valid value for parameter 'trise' could not be found in 'I0.R2.CM'.
    WARNING (CMI-2943): Parameter checks have been ignored because the valid value for parameter 'trise' could not be found in 'I0.R2.CS1'.
    WARNING (CMI-2943): Parameter checks have been ignored because the valid value for parameter 'trise' could not be found in 'I0.R2.CS0'.
    WARNING (CMI-2943): Parameter checks have been ignored because the valid value for parameter 'trise' could not be found in 'I0.C8<3>.C1'.
        Further occurrences of this warning will be suppressed.

Convergence achieved in 20 iterations.
DC simulation time: CPU = 6.692 ms, elapsed = 8.2612 ms.
Total time required for dc analysis `dcOp': CPU = 7.256 ms, elapsed = 8.82292 ms, util. = 82.2%.
Time accumulated: CPU = 3.44314 s, elapsed = 4.13211 s.
Peak resident memory used = 214 Mbytes.


Notice from spectre during Monte Carlo analysis `mc1'.
    34 warnings suppressed.

dcOpInfo: writing operating point information to rawfile.

Opening the PSF file ../psf/mc1_separate/005/dcOpInfo.info ...

************************************************
Transient Analysis `tran': time = (0 s -> 40 ms)
************************************************

Opening the PSF file ../psf/mc1_separate/005/tran.tran.tran ...

Notice from spectre during IC analysis, during transient analysis `tran', during Monte Carlo analysis `mc1'.
    GminDC = 1 pS is large enough to noticeably affect the DC solution.
        dV(vout) = -224.034 uV
        Use the `gmin_check' option to eliminate or expand this report.
    Bad pivoting is found during DC analysis. Option dc_pivot_check=yes is recommended for possible improvement of convergence.
Warning from spectre during check, during IC analysis, during transient analysis `tran', during Monte Carlo analysis `mc1'.
    WARNING (CMI-2943): Parameter checks have been ignored because the valid value for parameter 'trise' could not be found in 'C1'.
    WARNING (CMI-2943): Parameter checks have been ignored because the valid value for parameter 'trise' could not be found in 'I0.R2.CM'.
    WARNING (CMI-2943): Parameter checks have been ignored because the valid value for parameter 'trise' could not be found in 'I0.R2.CS1'.
    WARNING (CMI-2943): Parameter checks have been ignored because the valid value for parameter 'trise' could not be found in 'I0.R2.CS0'.
    WARNING (CMI-2943): Parameter checks have been ignored because the valid value for parameter 'trise' could not be found in 'I0.C8<3>.C1'.
        Further occurrences of this warning will be suppressed.

Convergence achieved in 20 iterations.
DC simulation time: CPU = 3.097 ms, elapsed = 3.09801 ms.
Important parameter values:
    start = 0 s
    outputstart = 0 s
    stop = 40 ms
    step = 40 us
    maxstep = 400 us
    ic = all
    useprevic = no
    skipdc = no
    reltol = 10e-06
    abstol(V) = 1 uV
    abstol(I) = 1 pA
    temp = -40 C
    tnom = 27 C
    tempeffects = all
    errpreset = conservative
    method = gear2only
    lteratio = 10
    relref = alllocal
    cmin = 0 F
    gmin = 1 pS
    rabsshort = 1 mOhm


Notice from spectre during transient analysis `tran', during Monte Carlo analysis `mc1'.
    Multithreading is disabled due to the size of the design being too small.


Output and IC/nodeset summary:
                 save   8       (current)
                 save   87      (voltage)

    tran: time = 1.026 ms    (2.57 %), step = 47.99 us     (120 m%)
    tran: time = 3.04 ms      (7.6 %), step = 47.05 us     (118 m%)
    tran: time = 5.007 ms    (12.5 %), step = 49.75 us     (124 m%)
    tran: time = 7.02 ms     (17.6 %), step = 48.47 us     (121 m%)
    tran: time = 9.034 ms    (22.6 %), step = 47.42 us     (119 m%)
    tran: time = 11 ms       (27.5 %), step = 50 us        (125 m%)
    tran: time = 13.01 ms    (32.5 %), step = 48.99 us     (122 m%)
    tran: time = 15.03 ms    (37.6 %), step = 47.84 us     (120 m%)
    tran: time = 17.04 ms    (42.6 %), step = 46.93 us     (117 m%)
    tran: time = 19.01 ms    (47.5 %), step = 49.54 us     (124 m%)
    tran: time = 21.02 ms    (52.6 %), step = 48.3 us      (121 m%)
    tran: time = 23.04 ms    (57.6 %), step = 47.29 us     (118 m%)
    tran: time = 25 ms       (62.5 %), step = 50 us        (125 m%)
    tran: time = 27.02 ms    (67.5 %), step = 48.81 us     (122 m%)
    tran: time = 29.03 ms    (72.6 %), step = 47.68 us     (119 m%)
    tran: time = 31.04 ms    (77.6 %), step = 46.82 us     (117 m%)
    tran: time = 33.01 ms    (82.5 %), step = 49.34 us     (123 m%)
    tran: time = 35.02 ms    (87.6 %), step = 48.14 us     (120 m%)
    tran: time = 37.04 ms    (92.6 %), step = 47.16 us     (118 m%)
    tran: time = 39.01 ms    (97.5 %), step = 49.93 us     (125 m%)
Number of accepted tran steps =             851

Maximum value achieved for any signal of each quantity: 
V: V(S<0>) = 3.3 V
I: I(V0:p) = 6.439 uA
Maximum value of each quantity, excluding Verilog-A modules or dangling current sources:
V: V(vout_filt) = 1.614 V
I: I(V0:p) = 6.439 uA

~~~~~~~~~~~~~~~~~~~~~~~~~~~~~~~~~
Post-Transient Simulation Summary
~~~~~~~~~~~~~~~~~~~~~~~~~~~~~~~~~
   -   To further speed up simulation, consider
          add ++aps on command line
   -   Non-default settings that could significantly slow down simulation
          errpreset = conservative, default moderate
          reltol = 10e-06, default 100e-06 (conservative)
~~~~~~~~~~~~~~~~~~~~~~~~~~~~~~~~~


During simulation, the CPU load for active processors is :
         0 (11.9 %)      1 (4.9 %)       2 (3.5 %)       3 (100.0 %)
         4 (7.1 %)       5 (3.3 %)       6 (2.4 %)       7 (5.7 %)
         8 (5.3 %)       9 (2.9 %)      10 (7.5 %)      11 (100.0 %)
        12 (89.6 %)     13 (2.9 %)      14 (2.7 %)      15 (5.5 %)
        16 (23.0 %)     17 (24.4 %)     18 (100.0 %)    19 (44.1 %)
        20 (41.4 %)     21 (34.3 %)     22 (15.4 %)     23 (24.7 %)
        24 (18.7 %)     25 (24.2 %)     26 (21.1 %)     27 (56.4 %)
        28 (23.4 %)     29 (4.6 %)      30 (3.3 %)      31 (100.0 %)
        32 (4.0 %)      33 (5.3 %)      34 (14.0 %)     35 (4.0 %)
        36 (19.3 %)     37 (48.2 %)     38 (4.0 %)      39 (100.0 %)
        40 (14.8 %)     41 (3.8 %)      42 (69.2 %)     43 (32.6 %)
        44 (55.5 %)     45 (3.3 %)      46 (6.4 %)      47 (4.3 %)
        Total: 1303.0%
Initial condition solution time: CPU = 3.13 ms, elapsed = 3.13187 ms.
Intrinsic tran analysis time:    CPU = 510.013 ms, elapsed = 511.611 ms.
Total time required for tran analysis `tran': CPU = 515.154 ms, elapsed = 517.343 ms, util. = 99.6%.
Time accumulated: CPU = 3.96545 s, elapsed = 4.65959 s.
Peak resident memory used = 214 Mbytes.


Notice from spectre during transient analysis `tran', during Monte Carlo analysis `mc1'.
    34 warnings suppressed.

finalTimeOP: writing operating point information to rawfile.

Opening the PSF file ../psf/mc1_separate/005/finalTimeOP.info ...
modelParameter: writing model parameter values to rawfile.

Opening the PSF file ../psf/mc1_separate/005/modelParameter.info ...
element: writing instance parameter values to rawfile.

Opening the PSF file ../psf/mc1_separate/005/element.info ...
outputParameter: writing output parameter values to rawfile.

Opening the PSF file ../psf/mc1_separate/005/outputParameter.info ...
designParamVals: writing netlist parameters to rawfile.

Opening the PSFASCII file ../psf/mc1_separate/005/designParamVals.info ...
primitives: writing primitives to rawfile.

Opening the PSFASCII file ../psf/mc1_separate/005/primitives.info.primitives ...
subckts: writing subcircuits to rawfile.

Opening the PSFASCII file ../psf/mc1_separate/005/subckts.info.subckts ...
    mc1: iteration = 5           (8.16 %), step = 1            (2.04 %)
6  10.20% 

*****************************************************************************************
* 
* INFO: AMS_processOption = C35B4C3
* 
* INFO: Valid Modules  PIP VG5 HIRES
* 
*****************************************************************************************


******************
DC Analysis `dcOp'
******************

Opening the PSF file ../psf/mc1_separate/006/dcOp.dc ...
Important parameter values:
    reltol = 100e-06
    abstol(V) = 1 uV
    abstol(I) = 1 pA
    temp = -40 C
    tnom = 27 C
    tempeffects = all
    gmindc = 1 pS
    rabsshort = 1 mOhm

Notice from spectre during DC analysis `dcOp', during Monte Carlo analysis `mc1'.
    GminDC = 1 pS is large enough to noticeably affect the DC solution.
        dV(vout) = -223.821 uV
        Use the `gmin_check' option to eliminate or expand this report.
    Bad pivoting is found during DC analysis. Option dc_pivot_check=yes is recommended for possible improvement of convergence.


Maximum value achieved for any signal of each quantity: 
V: V(S<0>) = 3.3 V
I: I(V0:p) = 6.471 uA
Maximum value of each quantity, excluding Verilog-A modules or dangling current sources:
V: V(net1) = 1.6 V
I: I(V0:p) = 6.471 uA

Warning from spectre during check, during DC analysis `dcOp', during Monte Carlo analysis `mc1'.
    WARNING (CMI-2943): Parameter checks have been ignored because the valid value for parameter 'trise' could not be found in 'C1'.
    WARNING (CMI-2943): Parameter checks have been ignored because the valid value for parameter 'trise' could not be found in 'I0.R2.CM'.
    WARNING (CMI-2943): Parameter checks have been ignored because the valid value for parameter 'trise' could not be found in 'I0.R2.CS1'.
    WARNING (CMI-2943): Parameter checks have been ignored because the valid value for parameter 'trise' could not be found in 'I0.R2.CS0'.
    WARNING (CMI-2943): Parameter checks have been ignored because the valid value for parameter 'trise' could not be found in 'I0.C8<3>.C1'.
        Further occurrences of this warning will be suppressed.

Convergence achieved in 19 iterations.
DC simulation time: CPU = 5.713 ms, elapsed = 7.0672 ms.
Total time required for dc analysis `dcOp': CPU = 6.199 ms, elapsed = 7.55191 ms, util. = 82.1%.
Time accumulated: CPU = 4.00964 s, elapsed = 4.71622 s.
Peak resident memory used = 214 Mbytes.


Notice from spectre during Monte Carlo analysis `mc1'.
    34 warnings suppressed.

dcOpInfo: writing operating point information to rawfile.

Opening the PSF file ../psf/mc1_separate/006/dcOpInfo.info ...

************************************************
Transient Analysis `tran': time = (0 s -> 40 ms)
************************************************

Opening the PSF file ../psf/mc1_separate/006/tran.tran.tran ...

Notice from spectre during IC analysis, during transient analysis `tran', during Monte Carlo analysis `mc1'.
    GminDC = 1 pS is large enough to noticeably affect the DC solution.
        dV(vout) = -223.821 uV
        Use the `gmin_check' option to eliminate or expand this report.
    Bad pivoting is found during DC analysis. Option dc_pivot_check=yes is recommended for possible improvement of convergence.
Warning from spectre during check, during IC analysis, during transient analysis `tran', during Monte Carlo analysis `mc1'.
    WARNING (CMI-2943): Parameter checks have been ignored because the valid value for parameter 'trise' could not be found in 'C1'.
    WARNING (CMI-2943): Parameter checks have been ignored because the valid value for parameter 'trise' could not be found in 'I0.R2.CM'.
    WARNING (CMI-2943): Parameter checks have been ignored because the valid value for parameter 'trise' could not be found in 'I0.R2.CS1'.
    WARNING (CMI-2943): Parameter checks have been ignored because the valid value for parameter 'trise' could not be found in 'I0.R2.CS0'.
    WARNING (CMI-2943): Parameter checks have been ignored because the valid value for parameter 'trise' could not be found in 'I0.C8<3>.C1'.
        Further occurrences of this warning will be suppressed.

Convergence achieved in 19 iterations.
DC simulation time: CPU = 2.852 ms, elapsed = 2.85292 ms.
Important parameter values:
    start = 0 s
    outputstart = 0 s
    stop = 40 ms
    step = 40 us
    maxstep = 400 us
    ic = all
    useprevic = no
    skipdc = no
    reltol = 10e-06
    abstol(V) = 1 uV
    abstol(I) = 1 pA
    temp = -40 C
    tnom = 27 C
    tempeffects = all
    errpreset = conservative
    method = gear2only
    lteratio = 10
    relref = alllocal
    cmin = 0 F
    gmin = 1 pS
    rabsshort = 1 mOhm


Notice from spectre during transient analysis `tran', during Monte Carlo analysis `mc1'.
    Multithreading is disabled due to the size of the design being too small.


Output and IC/nodeset summary:
                 save   8       (current)
                 save   87      (voltage)

    tran: time = 1.026 ms    (2.57 %), step = 47.95 us     (120 m%)
    tran: time = 3.04 ms      (7.6 %), step = 47.04 us     (118 m%)
    tran: time = 5.007 ms    (12.5 %), step = 49.76 us     (124 m%)
    tran: time = 7.02 ms     (17.5 %), step = 48.51 us     (121 m%)
    tran: time = 9.033 ms    (22.6 %), step = 47.47 us     (119 m%)
    tran: time = 11.05 ms    (27.6 %), step = 46.66 us     (117 m%)
    tran: time = 13.01 ms    (32.5 %), step = 49.11 us     (123 m%)
    tran: time = 15.03 ms    (37.6 %), step = 47.97 us     (120 m%)
    tran: time = 17.04 ms    (42.6 %), step = 47.05 us     (118 m%)
    tran: time = 19.01 ms    (47.5 %), step = 49.78 us     (124 m%)
    tran: time = 21.02 ms    (52.5 %), step = 48.53 us     (121 m%)
    tran: time = 23.03 ms    (57.6 %), step = 47.48 us     (119 m%)
    tran: time = 25.05 ms    (62.6 %), step = 46.67 us     (117 m%)
    tran: time = 27.01 ms    (67.5 %), step = 49.13 us     (123 m%)
    tran: time = 29.03 ms    (72.6 %), step = 47.98 us     (120 m%)
    tran: time = 31.04 ms    (77.6 %), step = 47.06 us     (118 m%)
    tran: time = 33.01 ms    (82.5 %), step = 49.8 us      (125 m%)
    tran: time = 35.02 ms    (87.5 %), step = 48.54 us     (121 m%)
    tran: time = 37.03 ms    (92.6 %), step = 47.5 us      (119 m%)
    tran: time = 39.05 ms    (97.6 %), step = 46.68 us     (117 m%)
Number of accepted tran steps =             851

Maximum value achieved for any signal of each quantity: 
V: V(S<0>) = 3.3 V
I: I(V0:p) = 6.472 uA
Maximum value of each quantity, excluding Verilog-A modules or dangling current sources:
V: V(vout_filt) = 1.613 V
I: I(V0:p) = 6.472 uA

~~~~~~~~~~~~~~~~~~~~~~~~~~~~~~~~~
Post-Transient Simulation Summary
~~~~~~~~~~~~~~~~~~~~~~~~~~~~~~~~~
   -   To further speed up simulation, consider
          add ++aps on command line
   -   Non-default settings that could significantly slow down simulation
          errpreset = conservative, default moderate
          reltol = 10e-06, default 100e-06 (conservative)
~~~~~~~~~~~~~~~~~~~~~~~~~~~~~~~~~


During simulation, the CPU load for active processors is :
         0 (20.8 %)      1 (6.2 %)       2 (3.7 %)       3 (100.0 %)
         4 (6.5 %)       5 (3.5 %)       6 (2.2 %)       7 (5.3 %)
         8 (5.1 %)       9 (2.8 %)      10 (7.1 %)      11 (100.0 %)
        12 (90.7 %)     13 (2.9 %)      14 (2.8 %)      15 (5.1 %)
        16 (21.2 %)     17 (22.6 %)     18 (100.0 %)    19 (41.7 %)
        20 (43.9 %)     21 (39.1 %)     22 (18.0 %)     23 (22.0 %)
        24 (27.1 %)     25 (22.6 %)     26 (21.1 %)     27 (50.4 %)
        28 (20.8 %)     29 (5.7 %)      30 (3.7 %)      31 (100.0 %)
        32 (3.9 %)      33 (5.1 %)      34 (12.9 %)     35 (4.5 %)
        36 (17.7 %)     37 (43.4 %)     38 (4.4 %)      39 (100.0 %)
        40 (17.0 %)     41 (4.0 %)      42 (62.4 %)     43 (31.7 %)
        44 (59.6 %)     45 (3.6 %)      46 (6.9 %)      47 (4.0 %)
        Total: 1305.5%
Initial condition solution time: CPU = 2.89 ms, elapsed = 2.89202 ms.
Intrinsic tran analysis time:    CPU = 505.991 ms, elapsed = 507.309 ms.
Total time required for tran analysis `tran': CPU = 510.731 ms, elapsed = 512.594 ms, util. = 99.6%.
Time accumulated: CPU = 4.52731 s, elapsed = 5.23809 s.
Peak resident memory used = 214 Mbytes.


Notice from spectre during transient analysis `tran', during Monte Carlo analysis `mc1'.
    34 warnings suppressed.

finalTimeOP: writing operating point information to rawfile.

Opening the PSF file ../psf/mc1_separate/006/finalTimeOP.info ...
modelParameter: writing model parameter values to rawfile.

Opening the PSF file ../psf/mc1_separate/006/modelParameter.info ...
element: writing instance parameter values to rawfile.

Opening the PSF file ../psf/mc1_separate/006/element.info ...
outputParameter: writing output parameter values to rawfile.

Opening the PSF file ../psf/mc1_separate/006/outputParameter.info ...
designParamVals: writing netlist parameters to rawfile.

Opening the PSFASCII file ../psf/mc1_separate/006/designParamVals.info ...
primitives: writing primitives to rawfile.

Opening the PSFASCII file ../psf/mc1_separate/006/primitives.info.primitives ...
subckts: writing subcircuits to rawfile.

Opening the PSFASCII file ../psf/mc1_separate/006/subckts.info.subckts ...
    mc1: iteration = 6           (10.2 %), step = 1            (2.04 %)
7  12.24% 

*****************************************************************************************
* 
* INFO: AMS_processOption = C35B4C3
* 
* INFO: Valid Modules  PIP VG5 HIRES
* 
*****************************************************************************************


******************
DC Analysis `dcOp'
******************

Opening the PSF file ../psf/mc1_separate/007/dcOp.dc ...
Important parameter values:
    reltol = 100e-06
    abstol(V) = 1 uV
    abstol(I) = 1 pA
    temp = -40 C
    tnom = 27 C
    tempeffects = all
    gmindc = 1 pS
    rabsshort = 1 mOhm

Notice from spectre during DC analysis `dcOp', during Monte Carlo analysis `mc1'.
    GminDC = 1 pS is large enough to noticeably affect the DC solution.
        dV(vout) = -224.109 uV
        Use the `gmin_check' option to eliminate or expand this report.
    Bad pivoting is found during DC analysis. Option dc_pivot_check=yes is recommended for possible improvement of convergence.


Maximum value achieved for any signal of each quantity: 
V: V(S<0>) = 3.3 V
I: I(V0:p) = 6.648 uA
Maximum value of each quantity, excluding Verilog-A modules or dangling current sources:
V: V(vout_filt) = 1.601 V
I: I(V0:p) = 6.648 uA

Warning from spectre during check, during DC analysis `dcOp', during Monte Carlo analysis `mc1'.
    WARNING (CMI-2943): Parameter checks have been ignored because the valid value for parameter 'trise' could not be found in 'C1'.
    WARNING (CMI-2943): Parameter checks have been ignored because the valid value for parameter 'trise' could not be found in 'I0.R2.CM'.
    WARNING (CMI-2943): Parameter checks have been ignored because the valid value for parameter 'trise' could not be found in 'I0.R2.CS1'.
    WARNING (CMI-2943): Parameter checks have been ignored because the valid value for parameter 'trise' could not be found in 'I0.R2.CS0'.
    WARNING (CMI-2943): Parameter checks have been ignored because the valid value for parameter 'trise' could not be found in 'I0.C8<3>.C1'.
        Further occurrences of this warning will be suppressed.

Convergence achieved in 22 iterations.
DC simulation time: CPU = 5.681 ms, elapsed = 7.01809 ms.
Total time required for dc analysis `dcOp': CPU = 6.093 ms, elapsed = 7.43103 ms, util. = 82%.
Time accumulated: CPU = 4.57232 s, elapsed = 5.2959 s.
Peak resident memory used = 214 Mbytes.


Notice from spectre during Monte Carlo analysis `mc1'.
    34 warnings suppressed.

dcOpInfo: writing operating point information to rawfile.

Opening the PSF file ../psf/mc1_separate/007/dcOpInfo.info ...

************************************************
Transient Analysis `tran': time = (0 s -> 40 ms)
************************************************

Opening the PSF file ../psf/mc1_separate/007/tran.tran.tran ...

Notice from spectre during IC analysis, during transient analysis `tran', during Monte Carlo analysis `mc1'.
    GminDC = 1 pS is large enough to noticeably affect the DC solution.
        dV(vout) = -224.109 uV
        Use the `gmin_check' option to eliminate or expand this report.
    Bad pivoting is found during DC analysis. Option dc_pivot_check=yes is recommended for possible improvement of convergence.
Warning from spectre during check, during IC analysis, during transient analysis `tran', during Monte Carlo analysis `mc1'.
    WARNING (CMI-2943): Parameter checks have been ignored because the valid value for parameter 'trise' could not be found in 'C1'.
[...]
element: writing instance parameter values to rawfile.

Opening the PSF file ../psf/mc1_separate/048/element.info ...
outputParameter: writing output parameter values to rawfile.

Opening the PSF file ../psf/mc1_separate/048/outputParameter.info ...
designParamVals: writing netlist parameters to rawfile.

Opening the PSFASCII file ../psf/mc1_separate/048/designParamVals.info ...
primitives: writing primitives to rawfile.

Opening the PSFASCII file ../psf/mc1_separate/048/primitives.info.primitives ...
subckts: writing subcircuits to rawfile.

Opening the PSFASCII file ../psf/mc1_separate/048/subckts.info.subckts ...
    mc1: iteration = 48          (95.9 %), step = 1            (2.04 %)
49  97.96% 

*****************************************************************************************
* 
* INFO: AMS_processOption = C35B4C3
* 
* INFO: Valid Modules  PIP VG5 HIRES
* 
*****************************************************************************************


******************
DC Analysis `dcOp'
******************

Opening the PSF file ../psf/mc1_separate/049/dcOp.dc ...
Important parameter values:
    reltol = 100e-06
    abstol(V) = 1 uV
    abstol(I) = 1 pA
    temp = -40 C
    tnom = 27 C
    tempeffects = all
    gmindc = 1 pS
    rabsshort = 1 mOhm

Notice from spectre during DC analysis `dcOp', during Monte Carlo analysis `mc1'.
    GminDC = 1 pS is large enough to noticeably affect the DC solution.
        dV(vout) = -223.993 uV
        Use the `gmin_check' option to eliminate or expand this report.
    Bad pivoting is found during DC analysis. Option dc_pivot_check=yes is recommended for possible improvement of convergence.


Maximum value achieved for any signal of each quantity: 
V: V(S<0>) = 3.3 V
I: I(V0:p) = 6.509 uA
Maximum value of each quantity, excluding Verilog-A modules or dangling current sources:
V: V(vout_filt) = 1.6 V
I: I(V0:p) = 6.509 uA

Warning from spectre during check, during DC analysis `dcOp', during Monte Carlo analysis `mc1'.
    WARNING (CMI-2943): Parameter checks have been ignored because the valid value for parameter 'trise' could not be found in 'C1'.
    WARNING (CMI-2943): Parameter checks have been ignored because the valid value for parameter 'trise' could not be found in 'I0.R2.CM'.
    WARNING (CMI-2943): Parameter checks have been ignored because the valid value for parameter 'trise' could not be found in 'I0.R2.CS1'.
    WARNING (CMI-2943): Parameter checks have been ignored because the valid value for parameter 'trise' could not be found in 'I0.R2.CS0'.
    WARNING (CMI-2943): Parameter checks have been ignored because the valid value for parameter 'trise' could not be found in 'I0.C8<3>.C1'.
        Further occurrences of this warning will be suppressed.

Convergence achieved in 19 iterations.
DC simulation time: CPU = 5.315 ms, elapsed = 6.71411 ms.
Total time required for dc analysis `dcOp': CPU = 5.719 ms, elapsed = 7.11584 ms, util. = 80.4%.
Time accumulated: CPU = 28.4754 s, elapsed = 29.9361 s.
Peak resident memory used = 215 Mbytes.


Notice from spectre during Monte Carlo analysis `mc1'.
    34 warnings suppressed.

dcOpInfo: writing operating point information to rawfile.

Opening the PSF file ../psf/mc1_separate/049/dcOpInfo.info ...

************************************************
Transient Analysis `tran': time = (0 s -> 40 ms)
************************************************

Opening the PSF file ../psf/mc1_separate/049/tran.tran.tran ...

Notice from spectre during IC analysis, during transient analysis `tran', during Monte Carlo analysis `mc1'.
    GminDC = 1 pS is large enough to noticeably affect the DC solution.
        dV(vout) = -223.993 uV
        Use the `gmin_check' option to eliminate or expand this report.
    Bad pivoting is found during DC analysis. Option dc_pivot_check=yes is recommended for possible improvement of convergence.
Warning from spectre during check, during IC analysis, during transient analysis `tran', during Monte Carlo analysis `mc1'.
    WARNING (CMI-2943): Parameter checks have been ignored because the valid value for parameter 'trise' could not be found in 'C1'.
    WARNING (CMI-2943): Parameter checks have been ignored because the valid value for parameter 'trise' could not be found in 'I0.R2.CM'.
    WARNING (CMI-2943): Parameter checks have been ignored because the valid value for parameter 'trise' could not be found in 'I0.R2.CS1'.
    WARNING (CMI-2943): Parameter checks have been ignored because the valid value for parameter 'trise' could not be found in 'I0.R2.CS0'.
    WARNING (CMI-2943): Parameter checks have been ignored because the valid value for parameter 'trise' could not be found in 'I0.C8<3>.C1'.
        Further occurrences of this warning will be suppressed.

Convergence achieved in 19 iterations.
DC simulation time: CPU = 2.885 ms, elapsed = 2.88701 ms.
Important parameter values:
    start = 0 s
    outputstart = 0 s
    stop = 40 ms
    step = 40 us
    maxstep = 400 us
    ic = all
    useprevic = no
    skipdc = no
    reltol = 10e-06
    abstol(V) = 1 uV
    abstol(I) = 1 pA
    temp = -40 C
    tnom = 27 C
    tempeffects = all
    errpreset = conservative
    method = gear2only
    lteratio = 10
    relref = alllocal
    cmin = 0 F
    gmin = 1 pS
    rabsshort = 1 mOhm


Notice from spectre during transient analysis `tran', during Monte Carlo analysis `mc1'.
    Multithreading is disabled due to the size of the design being too small.


Output and IC/nodeset summary:
                 save   8       (current)
                 save   87      (voltage)

    tran: time = 1.026 ms    (2.57 %), step = 47.96 us     (120 m%)
    tran: time = 3.04 ms      (7.6 %), step = 47.03 us     (118 m%)
    tran: time = 5.007 ms    (12.5 %), step = 49.72 us     (124 m%)
    tran: time = 7.02 ms     (17.6 %), step = 48.46 us     (121 m%)
    tran: time = 9.034 ms    (22.6 %), step = 47.42 us     (119 m%)
    tran: time = 11 ms       (27.5 %), step = 50 us        (125 m%)
    tran: time = 13.01 ms    (32.5 %), step = 49 us        (123 m%)
    tran: time = 15.03 ms    (37.6 %), step = 47.85 us     (120 m%)
    tran: time = 17.04 ms    (42.6 %), step = 46.95 us     (117 m%)
    tran: time = 19.01 ms    (47.5 %), step = 49.58 us     (124 m%)
    tran: time = 21.02 ms    (52.6 %), step = 48.34 us     (121 m%)
    tran: time = 23.04 ms    (57.6 %), step = 47.32 us     (118 m%)
    tran: time = 25 ms       (62.5 %), step = 50 us        (125 m%)
    tran: time = 27.02 ms    (67.5 %), step = 48.87 us     (122 m%)
    tran: time = 29.03 ms    (72.6 %), step = 47.74 us     (119 m%)
    tran: time = 31.04 ms    (77.6 %), step = 46.86 us     (117 m%)
    tran: time = 33.01 ms    (82.5 %), step = 49.43 us     (124 m%)
    tran: time = 35.02 ms    (87.6 %), step = 48.22 us     (121 m%)
    tran: time = 37.04 ms    (92.6 %), step = 47.23 us     (118 m%)
    tran: time = 39 ms       (97.5 %), step = 50 us        (125 m%)
Number of accepted tran steps =             851

Maximum value achieved for any signal of each quantity: 
V: V(S<0>) = 3.3 V
I: I(V0:p) = 6.51 uA
Maximum value of each quantity, excluding Verilog-A modules or dangling current sources:
V: V(vout_filt) = 1.614 V
I: I(V0:p) = 6.51 uA

~~~~~~~~~~~~~~~~~~~~~~~~~~~~~~~~~
Post-Transient Simulation Summary
~~~~~~~~~~~~~~~~~~~~~~~~~~~~~~~~~
   -   To further speed up simulation, consider
          add ++aps on command line
   -   Non-default settings that could significantly slow down simulation
          errpreset = conservative, default moderate
          reltol = 10e-06, default 100e-06 (conservative)
~~~~~~~~~~~~~~~~~~~~~~~~~~~~~~~~~


During simulation, the CPU load for active processors is :
         0 (23.7 %)      1 (28.0 %)      2 (14.1 %)      3 (36.7 %)
         4 (49.3 %)      5 (10.7 %)      6 (11.3 %)      7 (16.5 %)
         8 (7.1 %)       9 (15.1 %)     10 (19.6 %)     11 (100.0 %)
        12 (39.1 %)     13 (23.4 %)     14 (27.1 %)     15 (14.0 %)
        16 (17.0 %)     17 (13.3 %)     18 (52.8 %)     19 (15.7 %)
        20 (39.1 %)     21 (55.0 %)     22 (54.3 %)     23 (15.9 %)
        24 (23.4 %)     25 (24.2 %)     26 (13.4 %)     27 (29.2 %)
        28 (23.7 %)     29 (28.0 %)     30 (37.9 %)     31 (100.0 %)
        32 (23.9 %)     33 (29.9 %)     34 (28.4 %)     35 (7.8 %)
        36 (27.0 %)     37 (31.6 %)     38 (25.1 %)     39 (100.0 %)
        40 (19.5 %)     41 (13.6 %)     42 (23.4 %)     43 (13.0 %)
        44 (17.3 %)     45 (36.7 %)     46 (15.5 %)     47 (22.4 %)
        Total: 1413.5%
Initial condition solution time: CPU = 2.917 ms, elapsed = 2.91896 ms.
Intrinsic tran analysis time:    CPU = 516.751 ms, elapsed = 518.242 ms.
Total time required for tran analysis `tran': CPU = 521.544 ms, elapsed = 523.636 ms, util. = 99.6%.
Time accumulated: CPU = 29.0039 s, elapsed = 30.4691 s.
Peak resident memory used = 215 Mbytes.


Notice from spectre during transient analysis `tran', during Monte Carlo analysis `mc1'.
    34 warnings suppressed.

finalTimeOP: writing operating point information to rawfile.

Opening the PSF file ../psf/mc1_separate/049/finalTimeOP.info ...
modelParameter: writing model parameter values to rawfile.

Opening the PSF file ../psf/mc1_separate/049/modelParameter.info ...
element: writing instance parameter values to rawfile.

Opening the PSF file ../psf/mc1_separate/049/element.info ...
outputParameter: writing output parameter values to rawfile.

Opening the PSF file ../psf/mc1_separate/049/outputParameter.info ...
designParamVals: writing netlist parameters to rawfile.

Opening the PSFASCII file ../psf/mc1_separate/049/designParamVals.info ...
primitives: writing primitives to rawfile.

Opening the PSFASCII file ../psf/mc1_separate/049/primitives.info.primitives ...
subckts: writing subcircuits to rawfile.

Opening the PSFASCII file ../psf/mc1_separate/049/subckts.info.subckts ...
    mc1: iteration = 49            (98 %), step = 1            (2.04 %)
50 100.00% 

*****************************************************************************************
* 
* INFO: AMS_processOption = C35B4C3
* 
* INFO: Valid Modules  PIP VG5 HIRES
* 
*****************************************************************************************


******************
DC Analysis `dcOp'
******************

Opening the PSF file ../psf/mc1_separate/050/dcOp.dc ...
Important parameter values:
    reltol = 100e-06
    abstol(V) = 1 uV
    abstol(I) = 1 pA
    temp = -40 C
    tnom = 27 C
    tempeffects = all
    gmindc = 1 pS
    rabsshort = 1 mOhm

Notice from spectre during DC analysis `dcOp', during Monte Carlo analysis `mc1'.
    GminDC = 1 pS is large enough to noticeably affect the DC solution.
        dV(vout) = -224.068 uV
        Use the `gmin_check' option to eliminate or expand this report.
    Bad pivoting is found during DC analysis. Option dc_pivot_check=yes is recommended for possible improvement of convergence.


Maximum value achieved for any signal of each quantity: 
V: V(S<0>) = 3.3 V
I: I(V0:p) = 6.446 uA
Maximum value of each quantity, excluding Verilog-A modules or dangling current sources:
V: V(vout_filt) = 1.601 V
I: I(V0:p) = 6.446 uA

Warning from spectre during check, during DC analysis `dcOp', during Monte Carlo analysis `mc1'.
    WARNING (CMI-2943): Parameter checks have been ignored because the valid value for parameter 'trise' could not be found in 'C1'.
    WARNING (CMI-2943): Parameter checks have been ignored because the valid value for parameter 'trise' could not be found in 'I0.R2.CM'.
    WARNING (CMI-2943): Parameter checks have been ignored because the valid value for parameter 'trise' could not be found in 'I0.R2.CS1'.
    WARNING (CMI-2943): Parameter checks have been ignored because the valid value for parameter 'trise' could not be found in 'I0.R2.CS0'.
    WARNING (CMI-2943): Parameter checks have been ignored because the valid value for parameter 'trise' could not be found in 'I0.C8<3>.C1'.
        Further occurrences of this warning will be suppressed.

Convergence achieved in 19 iterations.
DC simulation time: CPU = 5.71 ms, elapsed = 7.2298 ms.
Total time required for dc analysis `dcOp': CPU = 6.197 ms, elapsed = 7.71713 ms, util. = 80.3%.
Time accumulated: CPU = 29.0493 s, elapsed = 30.5284 s.
Peak resident memory used = 215 Mbytes.


Notice from spectre during Monte Carlo analysis `mc1'.
    34 warnings suppressed.

dcOpInfo: writing operating point information to rawfile.

Opening the PSF file ../psf/mc1_separate/050/dcOpInfo.info ...

************************************************
Transient Analysis `tran': time = (0 s -> 40 ms)
************************************************

Opening the PSF file ../psf/mc1_separate/050/tran.tran.tran ...

Notice from spectre during IC analysis, during transient analysis `tran', during Monte Carlo analysis `mc1'.
    GminDC = 1 pS is large enough to noticeably affect the DC solution.
        dV(vout) = -224.068 uV
        Use the `gmin_check' option to eliminate or expand this report.
    Bad pivoting is found during DC analysis. Option dc_pivot_check=yes is recommended for possible improvement of convergence.
Warning from spectre during check, during IC analysis, during transient analysis `tran', during Monte Carlo analysis `mc1'.
    WARNING (CMI-2943): Parameter checks have been ignored because the valid value for parameter 'trise' could not be found in 'C1'.
    WARNING (CMI-2943): Parameter checks have been ignored because the valid value for parameter 'trise' could not be found in 'I0.R2.CM'.
    WARNING (CMI-2943): Parameter checks have been ignored because the valid value for parameter 'trise' could not be found in 'I0.R2.CS1'.
    WARNING (CMI-2943): Parameter checks have been ignored because the valid value for parameter 'trise' could not be found in 'I0.R2.CS0'.
    WARNING (CMI-2943): Parameter checks have been ignored because the valid value for parameter 'trise' could not be found in 'I0.C8<3>.C1'.
        Further occurrences of this warning will be suppressed.

Convergence achieved in 19 iterations.
DC simulation time: CPU = 2.929 ms, elapsed = 2.92897 ms.
Important parameter values:
    start = 0 s
    outputstart = 0 s
    stop = 40 ms
    step = 40 us
    maxstep = 400 us
    ic = all
    useprevic = no
    skipdc = no
    reltol = 10e-06
    abstol(V) = 1 uV
    abstol(I) = 1 pA
    temp = -40 C
    tnom = 27 C
    tempeffects = all
    errpreset = conservative
    method = gear2only
    lteratio = 10
    relref = alllocal
    cmin = 0 F
    gmin = 1 pS
    rabsshort = 1 mOhm


Notice from spectre during transient analysis `tran', during Monte Carlo analysis `mc1'.
    Multithreading is disabled due to the size of the design being too small.


Output and IC/nodeset summary:
                 save   8       (current)
                 save   87      (voltage)

    tran: time = 1.027 ms    (2.57 %), step = 47.96 us     (120 m%)
    tran: time = 3.04 ms      (7.6 %), step = 47.02 us     (118 m%)
    tran: time = 5.007 ms    (12.5 %), step = 49.68 us     (124 m%)
    tran: time = 7.021 ms    (17.6 %), step = 48.42 us     (121 m%)
    tran: time = 9.035 ms    (22.6 %), step = 47.37 us     (118 m%)
    tran: time = 11 ms       (27.5 %), step = 50 us        (125 m%)
    tran: time = 13.02 ms    (32.5 %), step = 48.9 us      (122 m%)
    tran: time = 15.03 ms    (37.6 %), step = 47.76 us     (119 m%)
    tran: time = 17.04 ms    (42.6 %), step = 46.87 us     (117 m%)
    tran: time = 19.01 ms    (47.5 %), step = 49.42 us     (124 m%)
    tran: time = 21.02 ms    (52.6 %), step = 48.2 us      (121 m%)
    tran: time = 23.04 ms    (57.6 %), step = 47.21 us     (118 m%)
    tran: time = 25 ms       (62.5 %), step = 50 us        (125 m%)
    tran: time = 27.02 ms    (67.5 %), step = 48.67 us     (122 m%)
    tran: time = 29.03 ms    (72.6 %), step = 47.58 us     (119 m%)
    tran: time = 31.05 ms    (77.6 %), step = 46.73 us     (117 m%)
    tran: time = 33.01 ms    (82.5 %), step = 49.18 us     (123 m%)
    tran: time = 35.03 ms    (87.6 %), step = 48 us        (120 m%)
    tran: time = 37.04 ms    (92.6 %), step = 47.05 us     (118 m%)
    tran: time = 39.01 ms    (97.5 %), step = 49.74 us     (124 m%)
Number of accepted tran steps =             851

Maximum value achieved for any signal of each quantity: 
V: V(S<0>) = 3.3 V
I: I(V0:p) = 6.446 uA
Maximum value of each quantity, excluding Verilog-A modules or dangling current sources:
V: V(vout_filt) = 1.614 V
I: I(V0:p) = 6.446 uA

~~~~~~~~~~~~~~~~~~~~~~~~~~~~~~~~~
Post-Transient Simulation Summary
~~~~~~~~~~~~~~~~~~~~~~~~~~~~~~~~~
   -   To further speed up simulation, consider
          add ++aps on command line
   -   Non-default settings that could significantly slow down simulation
          errpreset = conservative, default moderate
          reltol = 10e-06, default 100e-06 (conservative)
~~~~~~~~~~~~~~~~~~~~~~~~~~~~~~~~~


During simulation, the CPU load for active processors is :
         0 (23.3 %)      1 (29.4 %)      2 (13.9 %)      3 (36.2 %)
         4 (48.4 %)      5 (10.6 %)      6 (12.9 %)      7 (16.2 %)
         8 (7.0 %)       9 (14.8 %)     10 (19.3 %)     11 (100.0 %)
        12 (38.9 %)     13 (24.9 %)     14 (26.6 %)     15 (13.8 %)
        16 (16.7 %)     17 (13.1 %)     18 (52.1 %)     19 (16.0 %)
        20 (39.8 %)     21 (54.0 %)     22 (53.4 %)     23 (15.7 %)
        24 (24.8 %)     25 (24.1 %)     26 (14.7 %)     27 (28.7 %)
        28 (23.4 %)     29 (29.3 %)     30 (37.2 %)     31 (100.0 %)
        32 (23.5 %)     33 (29.4 %)     34 (28.1 %)     35 (7.7 %)
        36 (26.6 %)     37 (31.3 %)     38 (24.6 %)     39 (100.0 %)
        40 (19.1 %)     41 (15.2 %)     42 (23.0 %)     43 (12.8 %)
        44 (17.5 %)     45 (37.9 %)     46 (15.2 %)     47 (22.0 %)
        Total: 1412.9%
Initial condition solution time: CPU = 2.974 ms, elapsed = 2.97403 ms.
Intrinsic tran analysis time:    CPU = 515.701 ms, elapsed = 517.128 ms.
Total time required for tran analysis `tran': CPU = 520.554 ms, elapsed = 522.59 ms, util. = 99.6%.
Time accumulated: CPU = 29.5769 s, elapsed = 31.0603 s.
Peak resident memory used = 215 Mbytes.


Notice from spectre during transient analysis `tran', during Monte Carlo analysis `mc1'.
    34 warnings suppressed.

finalTimeOP: writing operating point information to rawfile.

Opening the PSF file ../psf/mc1_separate/050/finalTimeOP.info ...
modelParameter: writing model parameter values to rawfile.

Opening the PSF file ../psf/mc1_separate/050/modelParameter.info ...
element: writing instance parameter values to rawfile.

Opening the PSF file ../psf/mc1_separate/050/element.info ...
outputParameter: writing output parameter values to rawfile.

Opening the PSF file ../psf/mc1_separate/050/outputParameter.info ...
designParamVals: writing netlist parameters to rawfile.

Opening the PSFASCII file ../psf/mc1_separate/050/designParamVals.info ...
primitives: writing primitives to rawfile.

Opening the PSFASCII file ../psf/mc1_separate/050/primitives.info.primitives ...
subckts: writing subcircuits to rawfile.

Opening the PSFASCII file ../psf/mc1_separate/050/subckts.info.subckts ...
    mc1: iteration = 50           (100 %), step = 1            (2.04 %)
Total time required for montecarlo analysis `mc1': CPU = 29.1416 s, elapsed = 30.0454 s, util. = 97%.
Time accumulated: CPU = 29.6052 s, elapsed = 31.102 s.
Peak resident memory used = 215 Mbytes.

Licensing Information:
Lic Summary:
[09:08:56.243953] Cdslmd servers:3000@lic08.ug.kth.se:29000@lic06.ug.kth.se
[09:08:56.243995] Feature usage summary:
[09:08:56.243995] Virtuoso_Multi_mode_Simulation


Aggregate audit (9:08:56 AM, Thur Apr 16, 2026):
Time used: CPU = 29.6 s, elapsed = 31.1 s, util. = 95.2%.
Time spent in licensing: elapsed = 51.8 ms.
Peak memory used = 215 Mbytes.
Simulation started at: 9:08:25 AM, Thur Apr 16, 2026, ended at: 9:08:56 AM, Thur Apr 16, 2026, with elapsed time (wall clock): 31.1 s.
spectre completes with 0 errors, 527 warnings, and 364 notices.
