
Spectre (R) Circuit Simulator
Version 24.1.0.288.isr5 64bit -- 3 Apr 2025
Copyright (C) 1989-2025 Cadence Design Systems, Inc. All rights reserved worldwide. Cadence and Spectre are registered trademarks of Cadence Design Systems, Inc. All others are the property of their respective holders.

Includes RSA BSAFE(R) Cryptographic or Security Protocol Software from RSA Security, Inc.

User: davidevi   Host: il2244vt26_davidevi   HostID: 11AC2C00   PID: 1046209
Memory  available: 3.0445 TB  physical: 3.2467 TB
Linux   : Rocky Linux release 8.10 (Green Obsidian)
CPU Type: Intel(R) Xeon(R) CPU E7-8857 v2 @ 3.00GHz
        Socket: Processors [Frequency]
        0:       0 [2500.0],  1 [1200.0],  2 [1200.0],  3 [2999.9],  4 [1200.0]
                 5 [1200.0],  6 [1900.0],  7 [1200.0],  8 [2999.9],  9 [1200.0]
                10 [2100.0], 11 [1200.0]
        1:      12 [2999.9], 13 [3600.0], 14 [3600.0], 15 [2999.9], 16 [3600.0]
                17 [3600.0], 18 [1200.0], 19 [2500.0], 20 [2900.0], 21 [2500.0]
                22 [1200.0], 23 [2500.0]
        2:      24 [1200.0], 25 [2900.0], 26 [2900.0], 27 [2999.9], 28 [3600.0]
                29 [1200.0], 30 [2999.9], 31 [3600.0], 32 [2600.0], 33 [1200.0]
                34 [2600.0], 35 [1200.0]
        3:      36 [2500.0], 37 [2999.9], 38 [2999.9], 39 [2999.9], 40 [3600.0]
                41 [3600.0], 42 [2999.9], 43 [2600.0], 44 [3500.0], 45 [2999.9]
                46 [2500.0], 47 [3600.0]
        
System load averages (1min, 5min, 15min) : 20.8 %, 16.0 %, 15.4 %
HPC is enabled


Simulating `input.scs' on il2244vt26_davidevi at 9:02:44 AM, Thur Apr 16, 2026 (process id: 1046209).
Current working directory: /home/davidevi/Desktop/myproject/Sim/VGA/VGA_1_tb/adexl/results/data/Interactive.107/30/Linerity/netlist
Command line:
    /opt/tools/cadence/installs/SPECTRE241/tools/bin/spectre -64  \
        input.scs +escchars +log ../psf/spectre.out -format psfbin  \
        +rtsf -raw ../psf +aps +mt +lqtimeout 900 -maxw 5 -maxn 5  \
        +param /opt/pdk/ams/410/spectre/ams_range.lmts -env ade  \
        -ahdllibdir  \
        /home/davidevi/Desktop/myproject/Sim/VGA/VGA_1_tb/adexl/results/data/Interactive.107/sharedData/Job472/ahdl/input.ahdlSimDB  \
        +logstatus  \
        +adespetkn=0001089D13A302B663E41FB550AF0DF415A679A322D5069144BF588C12F604E07EF416DC01A319B562BB63D379EE3FA745A37E8C7FF347B656AF7FAF4CCE4F9264AF79D15D9175FF34986BDD0AF002BA50FD7FD707E002A700AC1C8412F74CEA0EA979D121F874D3349879D118F874D334981031BD4BD1605D78000036E4

Simulation Id: KtTnejb73eowVIP7
Licensing Information:
[09:02:44.121754] Configured Lic search path (24.01-s002): 3000@lic08.ug.kth.se:29000@lic06.ug.kth.se

Licensing Information:
[09:02:44.240217] Periodic Lic check successful

Loading /opt/tools/cadence/installs/SPECTRE241/tools.lnx86/cmi/lib/64bit/5.0/libinfineon_sh.so ...
Loading /opt/tools/cadence/installs/SPECTRE241/tools.lnx86/cmi/lib/64bit/5.0/libphilips_I_sh.so ...
Loading /opt/tools/cadence/installs/SPECTRE241/tools.lnx86/cmi/lib/64bit/5.0/libphilips_sh.so ...
Loading /opt/tools/cadence/installs/SPECTRE241/tools.lnx86/cmi/lib/64bit/5.0/libsparam_sh.so ...
Loading /opt/tools/cadence/installs/SPECTRE241/tools.lnx86/cmi/lib/64bit/5.0/libstmodels_sh.so ...

Warning from spectre.
    WARNING (SPECTRE-691): This CPU processor does not support x86 advanced vector extensions instructions. This may affect math operations and slow down the simulation.

Reading file:  /home/davidevi/Desktop/myproject/Sim/VGA/VGA_1_tb/adexl/results/data/Interactive.107/30/Linerity/netlist/input.scs
Reading file:  /opt/pdk/ams/410/spectre/ams_range.lmts

Warning from spectre during read of parameter soft limits file `/opt/pdk/ams/410/spectre/ams_range.lmts', during circuit read-in.
    WARNING (SPECTRE-8360): line 1511: `ac' is an undefined primitive device.
    WARNING (SPECTRE-8360): line 1512: `ac' is an undefined primitive device.
    WARNING (SPECTRE-8360): line 1513: `ac' is an undefined primitive device.
    WARNING (SPECTRE-8360): line 1514: `ac' is an undefined primitive device.
    WARNING (SPECTRE-8360): line 1515: `ac' is an undefined primitive device.
        Further occurrences of this warning will be suppressed.

Reading file:  /opt/tools/cadence/installs/SPECTRE241/tools.lnx86/spectre/etc/configs/spectre.cfg
Reading file:  /opt/pdk/ams/410/spectre/c35/soac/soac.scs
Reading file:  /opt/pdk/ams/410/spectre/c35/soac/processOption.scs
Reading file:  /opt/pdk/ams/410/spectre/c35/soac/process.scs
Reading file:  /opt/pdk/ams/410/spectre/c35/soac/soac.va

Warning from spectre during AHDL read-in.
    WARNING (VACOMP-2435): The environment variable CDS_AHDLCMI_ENABLE is no longer supported. Therefore, the simulator will use the default compiled C code flow.

Reading link:  /opt/tools/cadence/installs/SPECTRE241/tools.lnx86/spectre/etc/ahdl/constants.h
Reading file:  /opt/tools/cadence/installs/SPECTRE241/tools.lnx86/spectre/etc/ahdl/constants.vams
Reading link:  /opt/tools/cadence/installs/SPECTRE241/tools.lnx86/spectre/etc/ahdl/discipline.h
Reading file:  /opt/tools/cadence/installs/SPECTRE241/tools.lnx86/spectre/etc/ahdl/disciplines.vams
Reading file:  /opt/pdk/ams/410/spectre/c35/processOption/C35B4C3.scs
Reading file:  /opt/pdk/ams/410/spectre/c35/soac/cmos53.scs
Reading file:  /opt/pdk/ams/410/spectre/c35/soac/res.scs
Reading file:  /opt/pdk/ams/410/spectre/c35/soac/cap.scs
Reading file:  /opt/pdk/ams/410/spectre/c35/soac/bip.scs
Reading file:  /opt/pdk/ams/410/spectre/c35/soac/ind.scs
Reading file:  /opt/pdk/ams/410/spectre/c35/soac/esddiode.scs
Time for NDB Parsing: CPU = 178.902 ms, elapsed = 346.142 ms.
Time accumulated: CPU = 378.46 ms, elapsed = 346.145 ms.
Peak resident memory used = 175 Mbytes.

Existing shared object for module modn_ahdl is up to date.
Installed compiled interface for modn_ahdl.
Existing shared object for module modp_ahdl is up to date.
Installed compiled interface for modp_ahdl.
Existing shared object for module cpoly_ahdl is up to date.
Installed compiled interface for cpoly_ahdl.
Existing shared object for module rpolyh_ahdl is up to date.
Installed compiled interface for rpolyh_ahdl.
Existing shared object for module bsource_19b458 is up to date.
Installed compiled interface for bsource_19b458.
Time for Elaboration: CPU = 43.773 ms, elapsed = 45.0459 ms.
Time accumulated: CPU = 422.391 ms, elapsed = 391.348 ms.
Peak resident memory used = 187 Mbytes.


Notice from spectre during hierarchy flattening.
    The value 'psf' specified for the 'checklimitdest' option will no longer be supported in future releases. Use 'spectre -h' to see other recommended values for the 'checklimitdest' option.


*****************************************************************************************
* 
* INFO: AMS_processOption = C35B4C3
* 
* INFO: Valid Modules  PIP VG5 HIRES
* 
*****************************************************************************************


Time for EDB Visiting: CPU = 7.329 ms, elapsed = 7.33685 ms.
Time accumulated: CPU = 429.851 ms, elapsed = 398.815 ms.
Peak resident memory used = 189 Mbytes.

Loading /opt/tools/cadence/installs/SPECTRE241/tools.lnx86/mdl/lib/64bit/libSpectreEH_sh.so ...

Warning from spectre during initial setup.
    WARNING (SPECTRE-16460): SOAC_cvarm_vspsub:Specified subcircuit master `cvarm' was not found.
    WARNING (SPECTRE-16462): SOAC_cvarm_vspsub:Error in specification of subcircuit master. Assert is ignored.
    WARNING (SPECTRE-16460): SOAC_cvarm_vbs:Specified subcircuit master `cvarm' was not found.
    WARNING (SPECTRE-16462): SOAC_cvarm_vbs:Error in specification of subcircuit master. Assert is ignored.
    WARNING (SPECTRE-16460): SOAC_cvarm_vgb:Specified subcircuit master `cvarm' was not found.
    WARNING (SPECTRE-16462): SOAC_cvarm_vgb:Error in specification of subcircuit master. Assert is ignored.
    WARNING (SPECTRE-16460): SOAC_cvart_vspsub:Specified subcircuit master `cvart' was not found.
    WARNING (SPECTRE-16462): SOAC_cvart_vspsub:Error in specification of subcircuit master. Assert is ignored.
    WARNING (SPECTRE-16460): SOAC_cvart_vbs:Specified subcircuit master `cvart' was not found.
        Further occurrences of this warning will be suppressed.
    WARNING (SPECTRE-16462): SOAC_cvart_vbs:Error in specification of subcircuit master. Assert is ignored.
        Further occurrences of this warning will be suppressed.
Notice from spectre during topology check.
    Only one connection to the following 43 nodes:
        I0.MN6.psub!
        I0.MN5.psub!
        I0.MN4.psub!
        I0.MN3.psub!
        I0.MN2.psub!
        Further occurrences of this notice will be suppressed.
Notice from spectre during initial setup.
    Multithreading is disabled due to the size of the design being too small.


Netlist title:
        // Point Netlist Generated on: Apr 16 09:02:43 2026


Global user options:
         psfversion = 1.4.0
            vabstol = 1e-06
            iabstol = 1e-12
               temp = -40
           homotopy = 5
              limit = delta
         compatible = spice2
               gmin = 1e-12
             rforce = 1
           maxnotes = 5
           maxwarns = 5
             digits = 5
               cols = 80
             pivrel = 0.001
           sensfile = ../psf/sens.output
     checklimitdest = psf
     enable_pre_ver = yes
      ignorezerovar = yes
               save = allpub
             reltol = 0.0001
               tnom = 27
             scalem = 1
              scale = 1

Scoped user options:

Circuit inventory:
              nodes 88
            bsim3v3 35    
     bsource_19b458 2     
          capacitor 38    
         cpoly_ahdl 17    
            isource 1     
          modn_ahdl 19    
          modp_ahdl 16    
           resistor 1     
        rpolyh_ahdl 2     
            vsource 8     

Analysis and control statement inventory:
                 dc 1     
               info 8     
               tran 1     

Output statements:
             .probe 0     
           .measure 0     
               save 0     

Design checks inventory:
          paramtest 55    
             assert 175   


Notice from spectre during initial setup.
    APS enabled.
    1 notice suppressed.
    72 warnings suppressed.

Time for parsing: CPU = 18.22 ms, elapsed = 622.52 ms.
Time accumulated: CPU = 448.181 ms, elapsed = 1.02144 s.
Peak resident memory used = 196 Mbytes.

~~~~~~~~~~~~~~~~~~~~~~
Pre-Simulation Summary
~~~~~~~~~~~~~~~~~~~~~~
   -   (APS) Multi-threading. The recommended number of threads is 1, consider adding +mt=1 on command line.
~~~~~~~~~~~~~~~~~~~~~~

******************
DC Analysis `dcOp'
******************

Notice from spectre during DC analysis `dcOp'.
    No checklimit analysis defined for asserts. A default checklimit analysis 'SpectreChecklimitAnal' has been created with all asserts enabled.


Opening the PSF file ../psf/dcOp.dc ...
Important parameter values:
    reltol = 100e-06
    abstol(V) = 1 uV
    abstol(I) = 1 pA
    temp = -40 C
    tnom = 27 C
    tempeffects = all
    gmindc = 1 pS
    rabsshort = 1 mOhm

Notice from spectre during DC analysis `dcOp'.
    GminDC = 1 pS is large enough to noticeably affect the DC solution.
        dV(vout) = -223.642 uV
        Use the `gmin_check' option to eliminate or expand this report.
    Bad pivoting is found during DC analysis. Option dc_pivot_check=yes is recommended for possible improvement of convergence.


Maximum value achieved for any signal of each quantity: 
V: V(S<0>) = 3.3 V
I: I(V0:p) = 6.468 uA
Maximum value of each quantity, excluding Verilog-A modules or dangling current sources:
V: V(vout_filt) = 1.6 V
I: I(V0:p) = 6.468 uA

Warning from spectre during check, during DC analysis `dcOp'.
    WARNING (CMI-2943): Parameter checks have been ignored because the valid value for parameter 'trise' could not be found in 'C1'.
    WARNING (CMI-2943): Parameter checks have been ignored because the valid value for parameter 'trise' could not be found in 'I0.R2.CM'.
    WARNING (CMI-2943): Parameter checks have been ignored because the valid value for parameter 'trise' could not be found in 'I0.R2.CS1'.
    WARNING (CMI-2943): Parameter checks have been ignored because the valid value for parameter 'trise' could not be found in 'I0.R2.CS0'.
    WARNING (CMI-2943): Parameter checks have been ignored because the valid value for parameter 'trise' could not be found in 'I0.C3.C1'.
        Further occurrences of this warning will be suppressed.

Convergence achieved in 19 iterations.
DC simulation time: CPU = 87.099 ms, elapsed = 91.357 ms.
Total time required for dc analysis `dcOp': CPU = 87.256 ms, elapsed = 91.5051 ms, util. = 95.4%.
Time accumulated: CPU = 558.862 ms, elapsed = 1.13739 s.
Peak resident memory used = 205 Mbytes.


Notice from spectre.
    12 warnings suppressed.

dcOpInfo: writing operating point information to rawfile.

Opening the PSF file ../psf/dcOpInfo.info ...

************************************************
Transient Analysis `tran': time = (0 s -> 40 ms)
************************************************

Notice from spectre during IC analysis, during transient analysis `tran'.
    GminDC = 1 pS is large enough to noticeably affect the DC solution.
        dV(vout) = -223.642 uV
        Use the `gmin_check' option to eliminate or expand this report.
    Bad pivoting is found during DC analysis. Option dc_pivot_check=yes is recommended for possible improvement of convergence.
Warning from spectre during check, during IC analysis, during transient analysis `tran'.
    WARNING (CMI-2943): Parameter checks have been ignored because the valid value for parameter 'trise' could not be found in 'C1'.
    WARNING (CMI-2943): Parameter checks have been ignored because the valid value for parameter 'trise' could not be found in 'I0.R2.CM'.
    WARNING (CMI-2943): Parameter checks have been ignored because the valid value for parameter 'trise' could not be found in 'I0.R2.CS1'.
    WARNING (CMI-2943): Parameter checks have been ignored because the valid value for parameter 'trise' could not be found in 'I0.R2.CS0'.
    WARNING (CMI-2943): Parameter checks have been ignored because the valid value for parameter 'trise' could not be found in 'I0.C3.C1'.
        Further occurrences of this warning will be suppressed.

Convergence achieved in 2 iterations.
DC simulation time: CPU = 901 us, elapsed = 903.13 us.

Opening the PSF file ../psf/tran.tran.tran ...
Important parameter values:
    start = 0 s
    outputstart = 0 s
    stop = 40 ms
    step = 40 us
    maxstep = 400 us
    ic = all
    useprevic = no
    skipdc = no
    reltol = 10e-06
    abstol(V) = 1 uV
    abstol(I) = 1 pA
    temp = -40 C
    tnom = 27 C
    tempeffects = all
    errpreset = conservative
    method = gear2only
    lteratio = 10
    relref = alllocal
    cmin = 0 F
    gmin = 1 pS
    rabsshort = 1 mOhm


Notice from spectre during transient analysis `tran'.
    Multithreading is disabled due to the size of the design being too small.


Output and IC/nodeset summary:
                 save   8       (current)
                 save   87      (voltage)

    tran: time = 1.022 ms    (2.56 %), step = 48.3 us      (121 m%)
    tran: time = 3.036 ms    (7.59 %), step = 47.29 us     (118 m%)
    tran: time = 5.003 ms    (12.5 %), step = 50 us        (125 m%)
    tran: time = 7.016 ms    (17.5 %), step = 48.82 us     (122 m%)
    tran: time = 9.03 ms     (22.6 %), step = 47.7 us      (119 m%)
    tran: time = 11.04 ms    (27.6 %), step = 46.84 us     (117 m%)
    tran: time = 13.01 ms    (32.5 %), step = 49.38 us     (123 m%)
    tran: time = 15.02 ms    (37.6 %), step = 48.18 us     (120 m%)
    tran: time = 17.04 ms    (42.6 %), step = 47.2 us      (118 m%)
    tran: time = 19 ms       (47.5 %), step = 50 us        (125 m%)
    tran: time = 21.02 ms    (52.5 %), step = 48.69 us     (122 m%)
    tran: time = 23.03 ms    (57.6 %), step = 47.6 us      (119 m%)
    tran: time = 25.05 ms    (62.6 %), step = 46.76 us     (117 m%)
    tran: time = 27.01 ms    (67.5 %), step = 49.25 us     (123 m%)
    tran: time = 29.03 ms    (72.6 %), step = 48.07 us     (120 m%)
    tran: time = 31.04 ms    (77.6 %), step = 47.11 us     (118 m%)
    tran: time = 33.01 ms    (82.5 %), step = 49.86 us     (125 m%)
    tran: time = 35.02 ms    (87.5 %), step = 48.58 us     (121 m%)
    tran: time = 37.03 ms    (92.6 %), step = 47.51 us     (119 m%)
    tran: time = 39.05 ms    (97.6 %), step = 46.68 us     (117 m%)
Number of accepted tran steps =             851

Maximum value achieved for any signal of each quantity: 
V: V(S<0>) = 3.3 V
I: I(V0:p) = 6.469 uA
Maximum value of each quantity, excluding Verilog-A modules or dangling current sources:
V: V(vout_filt) = 1.614 V
I: I(V0:p) = 6.469 uA

~~~~~~~~~~~~~~~~~~~~~~~~~~~~~~~~~
Post-Transient Simulation Summary
~~~~~~~~~~~~~~~~~~~~~~~~~~~~~~~~~
   -   To further speed up simulation, consider
          add ++aps on command line
   -   Non-default settings that could significantly slow down simulation
          errpreset = conservative, default moderate
          reltol = 10e-06, default 100e-06 (conservative)
~~~~~~~~~~~~~~~~~~~~~~~~~~~~~~~~~


During simulation, the CPU load for active processors is :
         0 (3.3 %)       1 (19.6 %)      2 (11.1 %)      3 (100.0 %)
         4 (8.6 %)       5 (6.5 %)       6 (27.6 %)      7 (9.1 %)
         8 (15.7 %)      9 (17.9 %)     10 (6.6 %)      11 (5.2 %)
        12 (100.0 %)    13 (5.3 %)      14 (2.6 %)      15 (7.7 %)
        16 (39.1 %)     17 (8.0 %)      18 (23.8 %)     19 (17.0 %)
        20 (16.4 %)     21 (19.2 %)     22 (7.9 %)      23 (3.9 %)
        24 (17.0 %)     25 (40.9 %)     26 (8.6 %)      27 (100.0 %)
        28 (32.9 %)     29 (5.9 %)      30 (13.6 %)     31 (3.9 %)
        32 (2.6 %)      33 (5.2 %)      34 (3.9 %)      35 (5.8 %)
        36 (5.2 %)      37 (17.2 %)     38 (8.6 %)      39 (100.0 %)
        40 (2.6 %)      41 (23.5 %)     42 (63.6 %)     43 (2.7 %)
        44 (15.7 %)     45 (5.8 %)      46 (11.0 %)     47 (4.5 %)
        Total: 982.9%
Initial condition solution time: CPU = 933 us, elapsed = 935.078 us.
Intrinsic tran analysis time:    CPU = 463.071 ms, elapsed = 464.285 ms.
Total time required for tran analysis `tran': CPU = 466.402 ms, elapsed = 468.477 ms, util. = 99.6%.
Time accumulated: CPU = 1.03417 s, elapsed = 1.61799 s.
Peak resident memory used = 208 Mbytes.


Notice from spectre.
    12 warnings suppressed.

finalTimeOP: writing operating point information to rawfile.

Opening the PSF file ../psf/finalTimeOP.info ...
modelParameter: writing model parameter values to rawfile.

Opening the PSF file ../psf/modelParameter.info ...
element: writing instance parameter values to rawfile.

Opening the PSF file ../psf/element.info ...
outputParameter: writing output parameter values to rawfile.

Opening the PSF file ../psf/outputParameter.info ...
designParamVals: writing netlist parameters to rawfile.

Opening the PSFASCII file ../psf/designParamVals.info ...
primitives: writing primitives to rawfile.

Opening the PSFASCII file ../psf/primitives.info.primitives ...
subckts: writing subcircuits to rawfile.

Opening the PSFASCII file ../psf/subckts.info.subckts ...
Licensing Information:
Lic Summary:
[09:02:45.187672] Cdslmd servers:3000@lic08.ug.kth.se:29000@lic06.ug.kth.se
[09:02:45.712000] Feature usage summary:
[09:02:45.712001] Virtuoso_Multi_mode_Simulation


Aggregate audit (9:02:45 AM, Thur Apr 16, 2026):
Time used: CPU = 1.07 s, elapsed = 1.67 s, util. = 64.3%.
Time spent in licensing: elapsed = 48.1 ms.
Peak memory used = 209 Mbytes.
Simulation started at: 9:02:44 AM, Thur Apr 16, 2026, ended at: 9:02:45 AM, Thur Apr 16, 2026, with elapsed time (wall clock): 1.67 s.
spectre completes with 0 errors, 27 warnings, and 14 notices.


********* LOG ENDS **************
**                             **
**                             **
********* LOG STARTS ************



Spectre (R) Circuit Simulator
Version 24.1.0.288.isr5 64bit -- 3 Apr 2025
Copyright (C) 1989-2025 Cadence Design Systems, Inc. All rights reserved worldwide. Cadence and Spectre are registered trademarks of Cadence Design Systems, Inc. All others are the property of their respective holders.

Includes RSA BSAFE(R) Cryptographic or Security Protocol Software from RSA Security, Inc.

User: davidevi   Host: il2244vt26_davidevi   HostID: 11AC2C00   PID: 1045605
Memory  available: 3.0448 TB  physical: 3.2467 TB
Linux   : Rocky Linux release 8.10 (Green Obsidian)
CPU Type: Intel(R) Xeon(R) CPU E7-8857 v2 @ 3.00GHz
        Socket: Processors [Frequency]
        0:       0 [2999.9],  1 [1200.0],  2 [2999.9],  3 [2999.9],  4 [1600.0]
                 5 [2500.0],  6 [1200.0],  7 [2800.0],  8 [3600.0],  9 [1200.0]
                10 [1200.0], 11 [1300.0]
        1:      12 [2999.9], 13 [3600.0], 14 [2999.9], 15 [2500.0], 16 [2400.0]
                17 [3600.0], 18 [1500.0], 19 [3600.0], 20 [2700.0], 21 [3000.0]
                22 [2800.0], 23 [3600.0]
        2:      24 [2500.0], 25 [3400.0], 26 [2999.9], 27 [2999.9], 28 [1200.0]
                29 [2900.0], 30 [3100.0], 31 [2500.0], 32 [1200.0], 33 [2500.0]
                34 [2900.0], 35 [3600.0]
        3:      36 [1200.0], 37 [1200.0], 38 [1200.0], 39 [2999.9], 40 [1200.0]
                41 [2500.0], 42 [2999.9], 43 [2500.0], 44 [1200.0], 45 [1200.0]
                46 [1200.0], 47 [2999.9]
        
System load averages (1min, 5min, 15min) : 20.2 %, 15.9 %, 15.3 %
HPC is enabled


Simulating `input.scs' on il2244vt26_davidevi at 9:02:39 AM, Thur Apr 16, 2026 (process id: 1045605).
Current working directory: /home/davidevi/Desktop/myproject/Sim/VGA/VGA_1_tb/adexl/results/data/Interactive.107/26/Linerity/netlist
Command line:
    /opt/tools/cadence/installs/SPECTRE241/tools/bin/spectre -64  \
        input.scs +escchars +log ../psf/spectre.out -format psfbin  \
        +rtsf -raw ../psf +aps +mt +lqtimeout 900 -maxw 5 -maxn 5  \
        +param /opt/pdk/ams/410/spectre/ams_range.lmts -env ade  \
        -ahdllibdir  \
        /home/davidevi/Desktop/myproject/Sim/VGA/VGA_1_tb/adexl/results/data/Interactive.107/sharedData/Job472/ahdl/input.ahdlSimDB  \
        +logstatus  \
        +adespetkn=0001089D13A302B663E41FB550AF0DF415A679A322D5069144BF588C12F604E07EF416DC01A319B562BB63D35AE81CA145A30BD320831FE175FF09A055D64F920DAA79D15D9175FF34986BDD0AF002BA50FD7FD707E002A700AC1C8412F74CEA0EA979D121F874D3349879D118F874D334981031BD57D17C5D7800003675

Simulation Id: hrSI3eAgk2voIC92
Licensing Information:
[09:02:39.121786] Configured Lic search path (24.01-s002): 3000@lic08.ug.kth.se:29000@lic06.ug.kth.se

Licensing Information:
[09:02:39.459984] Periodic Lic check successful

Loading /opt/tools/cadence/installs/SPECTRE241/tools.lnx86/cmi/lib/64bit/5.0/libinfineon_sh.so ...
Loading /opt/tools/cadence/installs/SPECTRE241/tools.lnx86/cmi/lib/64bit/5.0/libphilips_I_sh.so ...
Loading /opt/tools/cadence/installs/SPECTRE241/tools.lnx86/cmi/lib/64bit/5.0/libphilips_sh.so ...
Loading /opt/tools/cadence/installs/SPECTRE241/tools.lnx86/cmi/lib/64bit/5.0/libsparam_sh.so ...
Loading /opt/tools/cadence/installs/SPECTRE241/tools.lnx86/cmi/lib/64bit/5.0/libstmodels_sh.so ...

Warning from spectre.
    WARNING (SPECTRE-691): This CPU processor does not support x86 advanced vector extensions instructions. This may affect math operations and slow down the simulation.

Reading file:  /home/davidevi/Desktop/myproject/Sim/VGA/VGA_1_tb/adexl/results/data/Interactive.107/26/Linerity/netlist/input.scs
Reading file:  /opt/pdk/ams/410/spectre/ams_range.lmts

Warning from spectre during read of parameter soft limits file `/opt/pdk/ams/410/spectre/ams_range.lmts', during circuit read-in.
    WARNING (SPECTRE-8360): line 1511: `ac' is an undefined primitive device.
    WARNING (SPECTRE-8360): line 1512: `ac' is an undefined primitive device.
    WARNING (SPECTRE-8360): line 1513: `ac' is an undefined primitive device.
    WARNING (SPECTRE-8360): line 1514: `ac' is an undefined primitive device.
    WARNING (SPECTRE-8360): line 1515: `ac' is an undefined primitive device.
        Further occurrences of this warning will be suppressed.

Reading file:  /opt/tools/cadence/installs/SPECTRE241/tools.lnx86/spectre/etc/configs/spectre.cfg
Reading file:  /opt/pdk/ams/410/spectre/c35/soac/soac.scs
Reading file:  /opt/pdk/ams/410/spectre/c35/soac/processOption.scs
Reading file:  /opt/pdk/ams/410/spectre/c35/soac/process.scs
Reading file:  /opt/pdk/ams/410/spectre/c35/soac/soac.va

Warning from spectre during AHDL read-in.
    WARNING (VACOMP-2435): The environment variable CDS_AHDLCMI_ENABLE is no longer supported. Therefore, the simulator will use the default compiled C code flow.

Reading link:  /opt/tools/cadence/installs/SPECTRE241/tools.lnx86/spectre/etc/ahdl/constants.h
Reading file:  /opt/tools/cadence/installs/SPECTRE241/tools.lnx86/spectre/etc/ahdl/constants.vams
Reading link:  /opt/tools/cadence/installs/SPECTRE241/tools.lnx86/spectre/etc/ahdl/discipline.h
Reading file:  /opt/tools/cadence/installs/SPECTRE241/tools.lnx86/spectre/etc/ahdl/disciplines.vams
Reading file:  /opt/pdk/ams/410/spectre/c35/processOption/C35B4C3.scs
Reading file:  /opt/pdk/ams/410/spectre/c35/soac/cmos53.scs
Reading file:  /opt/pdk/ams/410/spectre/c35/soac/res.scs
Reading file:  /opt/pdk/ams/410/spectre/c35/soac/cap.scs
Reading file:  /opt/pdk/ams/410/spectre/c35/soac/bip.scs
Reading file:  /opt/pdk/ams/410/spectre/c35/soac/ind.scs
Reading file:  /opt/pdk/ams/410/spectre/c35/soac/esddiode.scs
Time for NDB Parsing: CPU = 173.324 ms, elapsed = 341.725 ms.
Time accumulated: CPU = 377.612 ms, elapsed = 341.729 ms.
Peak resident memory used = 175 Mbytes.

Existing shared object for module modn_ahdl is up to date.
Installed compiled interface for modn_ahdl.
Existing shared object for module modp_ahdl is up to date.
Installed compiled interface for modp_ahdl.
Existing shared object for module cpoly_ahdl is up to date.
Installed compiled interface for cpoly_ahdl.
Existing shared object for module rpolyh_ahdl is up to date.
Installed compiled interface for rpolyh_ahdl.
Existing shared object for module bsource_19b458 is up to date.
Installed compiled interface for bsource_19b458.
Time for Elaboration: CPU = 46.098 ms, elapsed = 47.4739 ms.
Time accumulated: CPU = 423.857 ms, elapsed = 389.348 ms.
Peak resident memory used = 188 Mbytes.


Notice from spectre during hierarchy flattening.
    The value 'psf' specified for the 'checklimitdest' option will no longer be supported in future releases. Use 'spectre -h' to see other recommended values for the 'checklimitdest' option.


*****************************************************************************************
* 
* INFO: AMS_processOption = C35B4C3
* 
* INFO: Valid Modules  PIP VG5 HIRES
* 
*****************************************************************************************


Time for EDB Visiting: CPU = 7.588 ms, elapsed = 7.59506 ms.
Time accumulated: CPU = 431.618 ms, elapsed = 397.115 ms.
Peak resident memory used = 190 Mbytes.

Loading /opt/tools/cadence/installs/SPECTRE241/tools.lnx86/mdl/lib/64bit/libSpectreEH_sh.so ...

Warning from spectre during initial setup.
    WARNING (SPECTRE-16460): SOAC_cvarm_vspsub:Specified subcircuit master `cvarm' was not found.
    WARNING (SPECTRE-16462): SOAC_cvarm_vspsub:Error in specification of subcircuit master. Assert is ignored.
    WARNING (SPECTRE-16460): SOAC_cvarm_vbs:Specified subcircuit master `cvarm' was not found.
    WARNING (SPECTRE-16462): SOAC_cvarm_vbs:Error in specification of subcircuit master. Assert is ignored.
    WARNING (SPECTRE-16460): SOAC_cvarm_vgb:Specified subcircuit master `cvarm' was not found.
    WARNING (SPECTRE-16462): SOAC_cvarm_vgb:Error in specification of subcircuit master. Assert is ignored.
    WARNING (SPECTRE-16460): SOAC_cvart_vspsub:Specified subcircuit master `cvart' was not found.
    WARNING (SPECTRE-16462): SOAC_cvart_vspsub:Error in specification of subcircuit master. Assert is ignored.
    WARNING (SPECTRE-16460): SOAC_cvart_vbs:Specified subcircuit master `cvart' was not found.
        Further occurrences of this warning will be suppressed.
    WARNING (SPECTRE-16462): SOAC_cvart_vbs:Error in specification of subcircuit master. Assert is ignored.
        Further occurrences of this warning will be suppressed.
Notice from spectre during topology check.
    Only one connection to the following 43 nodes:
        I0.MN6.psub!
        I0.MN5.psub!
        I0.MN4.psub!
        I0.MN3.psub!
        I0.MN2.psub!
        Further occurrences of this notice will be suppressed.
Notice from spectre during initial setup.
    Multithreading is disabled due to the size of the design being too small.


Netlist title:
        // Point Netlist Generated on: Apr 16 09:02:39 2026


Global user options:
         psfversion = 1.4.0
            vabstol = 1e-06
            iabstol = 1e-12
               temp = -40
           homotopy = 5
              limit = delta
         compatible = spice2
               gmin = 1e-12
             rforce = 1
           maxnotes = 5
           maxwarns = 5
             digits = 5
               cols = 80
             pivrel = 0.001
           sensfile = ../psf/sens.output
     checklimitdest = psf
     enable_pre_ver = yes
      ignorezerovar = yes
               save = allpub
             reltol = 0.0001
               tnom = 27
             scalem = 1
              scale = 1

Scoped user options:

Circuit inventory:
              nodes 88
            bsim3v3 35    
     bsource_19b458 2     
          capacitor 38    
         cpoly_ahdl 17    
            isource 1     
          modn_ahdl 19    
          modp_ahdl 16    
           resistor 1     
        rpolyh_ahdl 2     
            vsource 8     

Analysis and control statement inventory:
                 dc 1     
               info 8     
               tran 1     

Output statements:
             .probe 0     
           .measure 0     
               save 0     

Design checks inventory:
          paramtest 55    
             assert 175   


Notice from spectre during initial setup.
    APS enabled.
    1 notice suppressed.
    72 warnings suppressed.

Time for parsing: CPU = 18.114 ms, elapsed = 625.929 ms.
Time accumulated: CPU = 449.857 ms, elapsed = 1.02317 s.
Peak resident memory used = 197 Mbytes.

~~~~~~~~~~~~~~~~~~~~~~
Pre-Simulation Summary
~~~~~~~~~~~~~~~~~~~~~~
   -   (APS) Multi-threading. The recommended number of threads is 1, consider adding +mt=1 on command line.
~~~~~~~~~~~~~~~~~~~~~~

******************
DC Analysis `dcOp'
******************

Notice from spectre during DC analysis `dcOp'.
    No checklimit analysis defined for asserts. A default checklimit analysis 'SpectreChecklimitAnal' has been created with all asserts enabled.


Opening the PSF file ../psf/dcOp.dc ...
Important parameter values:
    reltol = 100e-06
    abstol(V) = 1 uV
    abstol(I) = 1 pA
    temp = -40 C
    tnom = 27 C
    tempeffects = all
    gmindc = 1 pS
    rabsshort = 1 mOhm

Notice from spectre during DC analysis `dcOp'.
    GminDC = 1 pS is large enough to noticeably affect the DC solution.
        dV(vout) = -223.986 uV
        Use the `gmin_check' option to eliminate or expand this report.
    Bad pivoting is found during DC analysis. Option dc_pivot_check=yes is recommended for possible improvement of convergence.


Maximum value achieved for any signal of each quantity: 
V: V(S<0>) = 3.3 V
I: I(V0:p) = 6.468 uA
Maximum value of each quantity, excluding Verilog-A modules or dangling current sources:
V: V(vout_filt) = 1.6 V
I: I(V0:p) = 6.468 uA

Warning from spectre during check, during DC analysis `dcOp'.
    WARNING (CMI-2943): Parameter checks have been ignored because the valid value for parameter 'trise' could not be found in 'C1'.
    WARNING (CMI-2943): Parameter checks have been ignored because the valid value for parameter 'trise' could not be found in 'I0.R2.CM'.
    WARNING (CMI-2943): Parameter checks have been ignored because the valid value for parameter 'trise' could not be found in 'I0.R2.CS1'.
    WARNING (CMI-2943): Parameter checks have been ignored because the valid value for parameter 'trise' could not be found in 'I0.R2.CS0'.
    WARNING (CMI-2943): Parameter checks have been ignored because the valid value for parameter 'trise' could not be found in 'I0.C3.C1'.
        Further occurrences of this warning will be suppressed.

Convergence achieved in 19 iterations.
DC simulation time: CPU = 87.525 ms, elapsed = 92.1741 ms.
Total time required for dc analysis `dcOp': CPU = 87.704 ms, elapsed = 92.3371 ms, util. = 95%.
Time accumulated: CPU = 562.046 ms, elapsed = 1.14097 s.
Peak resident memory used = 205 Mbytes.


Notice from spectre.
    12 warnings suppressed.

dcOpInfo: writing operating point information to rawfile.

Opening the PSF file ../psf/dcOpInfo.info ...

************************************************
Transient Analysis `tran': time = (0 s -> 40 ms)
************************************************

Notice from spectre during IC analysis, during transient analysis `tran'.
    GminDC = 1 pS is large enough to noticeably affect the DC solution.
        dV(vout) = -223.986 uV
        Use the `gmin_check' option to eliminate or expand this report.
    Bad pivoting is found during DC analysis. Option dc_pivot_check=yes is recommended for possible improvement of convergence.
Warning from spectre during check, during IC analysis, during transient analysis `tran'.
    WARNING (CMI-2943): Parameter checks have been ignored because the valid value for parameter 'trise' could not be found in 'C1'.
    WARNING (CMI-2943): Parameter checks have been ignored because the valid value for parameter 'trise' could not be found in 'I0.R2.CM'.
    WARNING (CMI-2943): Parameter checks have been ignored because the valid value for parameter 'trise' could not be found in 'I0.R2.CS1'.
    WARNING (CMI-2943): Parameter checks have been ignored because the valid value for parameter 'trise' could not be found in 'I0.R2.CS0'.
    WARNING (CMI-2943): Parameter checks have been ignored because the valid value for parameter 'trise' could not be found in 'I0.C3.C1'.
        Further occurrences of this warning will be suppressed.

Convergence achieved in 2 iterations.
DC simulation time: CPU = 1.099 ms, elapsed = 1.10006 ms.

Opening the PSF file ../psf/tran.tran.tran ...
Important parameter values:
    start = 0 s
    outputstart = 0 s
    stop = 40 ms
    step = 40 us
    maxstep = 400 us
    ic = all
    useprevic = no
    skipdc = no
    reltol = 10e-06
    abstol(V) = 1 uV
    abstol(I) = 1 pA
    temp = -40 C
    tnom = 27 C
    tempeffects = all
    errpreset = conservative
    method = gear2only
    lteratio = 10
    relref = alllocal
    cmin = 0 F
    gmin = 1 pS
    rabsshort = 1 mOhm


Notice from spectre during transient analysis `tran'.
    Multithreading is disabled due to the size of the design being too small.


Output and IC/nodeset summary:
                 save   8       (current)
                 save   87      (voltage)

    tran: time = 1.02 ms     (2.55 %), step = 48.48 us     (121 m%)
    tran: time = 3.034 ms    (7.59 %), step = 47.44 us     (119 m%)
    tran: time = 5.001 ms    (12.5 %), step = 50 us        (125 m%)
    tran: time = 7.014 ms    (17.5 %), step = 49.03 us     (123 m%)
    tran: time = 9.028 ms    (22.6 %), step = 47.88 us     (120 m%)
    tran: time = 11.04 ms    (27.6 %), step = 46.97 us     (117 m%)
    tran: time = 13.01 ms    (32.5 %), step = 49.61 us     (124 m%)
    tran: time = 15.02 ms    (37.6 %), step = 48.37 us     (121 m%)
    tran: time = 17.04 ms    (42.6 %), step = 47.35 us     (118 m%)
    tran: time = 19 ms       (47.5 %), step = 50 us        (125 m%)
    tran: time = 21.02 ms    (52.5 %), step = 48.91 us     (122 m%)
    tran: time = 23.03 ms    (57.6 %), step = 47.77 us     (119 m%)
    tran: time = 25.04 ms    (62.6 %), step = 46.89 us     (117 m%)
    tran: time = 27.01 ms    (67.5 %), step = 49.48 us     (124 m%)
    tran: time = 29.02 ms    (72.6 %), step = 48.26 us     (121 m%)
    tran: time = 31.04 ms    (77.6 %), step = 47.26 us     (118 m%)
    tran: time = 33 ms       (82.5 %), step = 50 us        (125 m%)
    tran: time = 35.02 ms    (87.5 %), step = 48.79 us     (122 m%)
    tran: time = 37.03 ms    (92.6 %), step = 47.68 us     (119 m%)
    tran: time = 39.04 ms    (97.6 %), step = 46.81 us     (117 m%)
Number of accepted tran steps =             851

Maximum value achieved for any signal of each quantity: 
V: V(S<0>) = 3.3 V
I: I(V0:p) = 6.468 uA
Maximum value of each quantity, excluding Verilog-A modules or dangling current sources:
V: V(vout_filt) = 1.614 V
I: I(V0:p) = 6.468 uA

~~~~~~~~~~~~~~~~~~~~~~~~~~~~~~~~~
Post-Transient Simulation Summary
~~~~~~~~~~~~~~~~~~~~~~~~~~~~~~~~~
   -   To further speed up simulation, consider
          add ++aps on command line
   -   Non-default settings that could significantly slow down simulation
          errpreset = conservative, default moderate
          reltol = 10e-06, default 100e-06 (conservative)
~~~~~~~~~~~~~~~~~~~~~~~~~~~~~~~~~


During simulation, the CPU load for active processors is :
         0 (21.6 %)      1 (10.5 %)      2 (77.6 %)      3 (100.0 %)
         4 (21.1 %)      5 (24.8 %)      6 (28.6 %)      7 (5.1 %)
         8 (24.8 %)      9 (2.6 %)      10 (5.8 %)      11 (2.6 %)
        12 (100.0 %)    13 (12.7 %)     14 (22.7 %)     15 (7.1 %)
        16 (5.9 %)      17 (7.8 %)      18 (17.9 %)     19 (8.4 %)
        20 (13.1 %)     21 (24.8 %)     22 (5.8 %)      23 (12.3 %)
        24 (42.9 %)     25 (44.2 %)     26 (10.3 %)     27 (100.0 %)
        28 (5.2 %)      29 (7.6 %)      30 (4.0 %)      31 (18.2 %)
        32 (10.5 %)     33 (5.9 %)      34 (14.2 %)     35 (25.5 %)
        36 (20.3 %)     37 (29.9 %)     38 (3.9 %)      39 (100.0 %)
        40 (14.8 %)     41 (7.7 %)      42 (19.5 %)     43 (6.5 %)
        44 (5.8 %)      45 (5.7 %)      46 (34.0 %)     47 (13.0 %)
        Total: 1113.1%
Initial condition solution time: CPU = 1.137 ms, elapsed = 1.13797 ms.
Intrinsic tran analysis time:    CPU = 466.921 ms, elapsed = 468.379 ms.
Total time required for tran analysis `tran': CPU = 470.483 ms, elapsed = 472.562 ms, util. = 99.6%.
Time accumulated: CPU = 1.04227 s, elapsed = 1.62653 s.
Peak resident memory used = 208 Mbytes.


Notice from spectre.
    12 warnings suppressed.

finalTimeOP: writing operating point information to rawfile.

Opening the PSF file ../psf/finalTimeOP.info ...
modelParameter: writing model parameter values to rawfile.

Opening the PSF file ../psf/modelParameter.info ...
element: writing instance parameter values to rawfile.

Opening the PSF file ../psf/element.info ...
outputParameter: writing output parameter values to rawfile.

Opening the PSF file ../psf/outputParameter.info ...
designParamVals: writing netlist parameters to rawfile.

Opening the PSFASCII file ../psf/designParamVals.info ...
primitives: writing primitives to rawfile.

Opening the PSFASCII file ../psf/primitives.info.primitives ...
subckts: writing subcircuits to rawfile.

Opening the PSFASCII file ../psf/subckts.info.subckts ...
Licensing Information:
Lic Summary:
[09:02:41.463952] Cdslmd servers:3000@lic08.ug.kth.se:29000@lic06.ug.kth.se
[09:02:41.463995] Feature usage summary:
[09:02:41.464000] Virtuoso_Multi_mode_Simulation


Aggregate audit (9:02:41 AM, Thur Apr 16, 2026):
Time used: CPU = 1.08 s, elapsed = 1.68 s, util. = 64.5%.
Time spent in licensing: elapsed = 51.7 ms.
Peak memory used = 209 Mbytes.
Simulation started at: 9:02:39 AM, Thur Apr 16, 2026, ended at: 9:02:41 AM, Thur Apr 16, 2026, with elapsed time (wall clock): 1.68 s.
spectre completes with 0 errors, 27 warnings, and 14 notices.


********* LOG ENDS **************
**                             **
**                             **
********* LOG STARTS ************



Spectre (R) Circuit Simulator
Version 24.1.0.288.isr5 64bit -- 3 Apr 2025
Copyright (C) 1989-2025 Cadence Design Systems, Inc. All rights reserved worldwide. Cadence and Spectre are registered trademarks of Cadence Design Systems, Inc. All others are the property of their respective holders.

Includes RSA BSAFE(R) Cryptographic or Security Protocol Software from RSA Security, Inc.

User: davidevi   Host: il2244vt26_davidevi   HostID: 11AC2C00   PID: 1044994
Memory  available: 3.0449 TB  physical: 3.2467 TB
Linux   : Rocky Linux release 8.10 (Green Obsidian)
CPU Type: Intel(R) Xeon(R) CPU E7-8857 v2 @ 3.00GHz
        Socket: Processors [Frequency]
        0:       0 [3000.0],  1 [3600.0],  2 [1200.0],  3 [2999.9],  4 [2500.0]
                 5 [1200.0],  6 [2999.9],  7 [1200.0],  8 [2999.9],  9 [1200.0]
                10 [2500.0], 11 [1200.0]
        1:      12 [2600.0], 13 [3600.0], 14 [2900.0], 15 [3400.0], 16 [1200.0]
                17 [3600.0], 18 [3600.0], 19 [3300.0], 20 [1200.0], 21 [2999.9]
                22 [3000.0], 23 [1200.0]
        2:      24 [3100.0], 25 [2400.0], 26 [2999.9], 27 [2999.9], 28 [1200.0]
                29 [2500.0], 30 [2500.0], 31 [2100.0], 32 [3300.0], 33 [1200.0]
                34 [2900.0], 35 [3600.0]
        3:      36 [2300.0], 37 [2999.9], 38 [1200.0], 39 [2999.9], 40 [2600.0]
                41 [1200.0], 42 [3600.0], 43 [3600.0], 44 [3600.0], 45 [2700.0]
                46 [2999.9], 47 [2800.0]
        
System load averages (1min, 5min, 15min) : 19.6 %, 15.7 %, 15.2 %
HPC is enabled


Simulating `input.scs' on il2244vt26_davidevi at 9:02:35 AM, Thur Apr 16, 2026 (process id: 1044994).
Current working directory: /home/davidevi/Desktop/myproject/Sim/VGA/VGA_1_tb/adexl/results/data/Interactive.107/22/Linerity/netlist
Command line:
    /opt/tools/cadence/installs/SPECTRE241/tools/bin/spectre -64  \
        input.scs +escchars +log ../psf/spectre.out -format psfbin  \
        +rtsf -raw ../psf +aps +mt +lqtimeout 900 -maxw 5 -maxn 5  \
        +param /opt/pdk/ams/410/spectre/ams_range.lmts -env ade  \
        -ahdllibdir  \
        /home/davidevi/Desktop/myproject/Sim/VGA/VGA_1_tb/adexl/results/data/Interactive.107/sharedData/Job472/ahdl/input.ahdlSimDB  \
        +logstatus  \
        +adespetkn=0001089D13A302B663E41FB550AF0DF415A679A322D5069144BF588C12F604E07EF416DC01A319B562BB63D37BEA3DA345A314E41FFA379261E206C36BD04F920DF379D15D9175FF34986BDD0AF002BA50FD7FD707E002A700AC1C8412F74CEA0EA979D121F874D3349879D118F874D334981031BD52D1795D780000366C

Simulation Id: IpDC8OUzCAHiFy9k
Licensing Information:
[09:02:35.121754] Configured Lic search path (24.01-s002): 3000@lic08.ug.kth.se:29000@lic06.ug.kth.se

Licensing Information:
[09:02:35.165515] Periodic Lic check successful

Loading /opt/tools/cadence/installs/SPECTRE241/tools.lnx86/cmi/lib/64bit/5.0/libinfineon_sh.so ...
Loading /opt/tools/cadence/installs/SPECTRE241/tools.lnx86/cmi/lib/64bit/5.0/libphilips_I_sh.so ...
Loading /opt/tools/cadence/installs/SPECTRE241/tools.lnx86/cmi/lib/64bit/5.0/libphilips_sh.so ...
Loading /opt/tools/cadence/installs/SPECTRE241/tools.lnx86/cmi/lib/64bit/5.0/libsparam_sh.so ...
Loading /opt/tools/cadence/installs/SPECTRE241/tools.lnx86/cmi/lib/64bit/5.0/libstmodels_sh.so ...

Warning from spectre.
    WARNING (SPECTRE-691): This CPU processor does not support x86 advanced vector extensions instructions. This may affect math operations and slow down the simulation.

Reading file:  /home/davidevi/Desktop/myproject/Sim/VGA/VGA_1_tb/adexl/results/data/Interactive.107/22/Linerity/netlist/input.scs
Reading file:  /opt/pdk/ams/410/spectre/ams_range.lmts

Warning from spectre during read of parameter soft limits file `/opt/pdk/ams/410/spectre/ams_range.lmts', during circuit read-in.
    WARNING (SPECTRE-8360): line 1511: `ac' is an undefined primitive device.
    WARNING (SPECTRE-8360): line 1512: `ac' is an undefined primitive device.
    WARNING (SPECTRE-8360): line 1513: `ac' is an undefined primitive device.
    WARNING (SPECTRE-8360): line 1514: `ac' is an undefined primitive device.
    WARNING (SPECTRE-8360): line 1515: `ac' is an undefined primitive device.
        Further occurrences of this warning will be suppressed.

Reading file:  /opt/tools/cadence/installs/SPECTRE241/tools.lnx86/spectre/etc/configs/spectre.cfg
Reading file:  /opt/pdk/ams/410/spectre/c35/soac/soac.scs
Reading file:  /opt/pdk/ams/410/spectre/c35/soac/processOption.scs
Reading file:  /opt/pdk/ams/410/spectre/c35/soac/process.scs
Reading file:  /opt/pdk/ams/410/spectre/c35/soac/soac.va

Warning from spectre during AHDL read-in.
    WARNING (VACOMP-2435): The environment variable CDS_AHDLCMI_ENABLE is no longer supported. Therefore, the simulator will use the default compiled C code flow.

Reading link:  /opt/tools/cadence/installs/SPECTRE241/tools.lnx86/spectre/etc/ahdl/constants.h
Reading file:  /opt/tools/cadence/installs/SPECTRE241/tools.lnx86/spectre/etc/ahdl/constants.vams
Reading link:  /opt/tools/cadence/installs/SPECTRE241/tools.lnx86/spectre/etc/ahdl/discipline.h
Reading file:  /opt/tools/cadence/installs/SPECTRE241/tools.lnx86/spectre/etc/ahdl/disciplines.vams
Reading file:  /opt/pdk/ams/410/spectre/c35/processOption/C35B4C3.scs
Reading file:  /opt/pdk/ams/410/spectre/c35/soac/cmos53.scs
Reading file:  /opt/pdk/ams/410/spectre/c35/soac/res.scs
Reading file:  /opt/pdk/ams/410/spectre/c35/soac/cap.scs
Reading file:  /opt/pdk/ams/410/spectre/c35/soac/bip.scs
Reading file:  /opt/pdk/ams/410/spectre/c35/soac/ind.scs
Reading file:  /opt/pdk/ams/410/spectre/c35/soac/esddiode.scs
Time for NDB Parsing: CPU = 168.091 ms, elapsed = 334.351 ms.
Time accumulated: CPU = 369.949 ms, elapsed = 334.354 ms.
Peak resident memory used = 175 Mbytes.

Existing shared object for module modn_ahdl is up to date.
Installed compiled interface for modn_ahdl.
Existing shared object for module modp_ahdl is up to date.
Installed compiled interface for modp_ahdl.
Existing shared object for module cpoly_ahdl is up to date.
Installed compiled interface for cpoly_ahdl.
Existing shared object for module rpolyh_ahdl is up to date.
Installed compiled interface for rpolyh_ahdl.
Existing shared object for module bsource_19b458 is up to date.
Installed compiled interface for bsource_19b458.
Time for Elaboration: CPU = 45.269 ms, elapsed = 46.139 ms.
Time accumulated: CPU = 415.391 ms, elapsed = 380.665 ms.
Peak resident memory used = 188 Mbytes.


Notice from spectre during hierarchy flattening.
    The value 'psf' specified for the 'checklimitdest' option will no longer be supported in future releases. Use 'spectre -h' to see other recommended values for the 'checklimitdest' option.


*****************************************************************************************
* 
* INFO: AMS_processOption = C35B4C3
* 
* INFO: Valid Modules  PIP VG5 HIRES
* 
*****************************************************************************************


Time for EDB Visiting: CPU = 7.637 ms, elapsed = 7.65705 ms.
Time accumulated: CPU = 423.216 ms, elapsed = 388.509 ms.
Peak resident memory used = 190 Mbytes.

Loading /opt/tools/cadence/installs/SPECTRE241/tools.lnx86/mdl/lib/64bit/libSpectreEH_sh.so ...

Warning from spectre during initial setup.
    WARNING (SPECTRE-16460): SOAC_cvarm_vspsub:Specified subcircuit master `cvarm' was not found.
    WARNING (SPECTRE-16462): SOAC_cvarm_vspsub:Error in specification of subcircuit master. Assert is ignored.
    WARNING (SPECTRE-16460): SOAC_cvarm_vbs:Specified subcircuit master `cvarm' was not found.
    WARNING (SPECTRE-16462): SOAC_cvarm_vbs:Error in specification of subcircuit master. Assert is ignored.
    WARNING (SPECTRE-16460): SOAC_cvarm_vgb:Specified subcircuit master `cvarm' was not found.
    WARNING (SPECTRE-16462): SOAC_cvarm_vgb:Error in specification of subcircuit master. Assert is ignored.
    WARNING (SPECTRE-16460): SOAC_cvart_vspsub:Specified subcircuit master `cvart' was not found.
    WARNING (SPECTRE-16462): SOAC_cvart_vspsub:Error in specification of subcircuit master. Assert is ignored.
    WARNING (SPECTRE-16460): SOAC_cvart_vbs:Specified subcircuit master `cvart' was not found.
        Further occurrences of this warning will be suppressed.
    WARNING (SPECTRE-16462): SOAC_cvart_vbs:Error in specification of subcircuit master. Assert is ignored.
        Further occurrences of this warning will be suppressed.
Notice from spectre during topology check.
    Only one connection to the following 43 nodes:
        I0.MN6.psub!
        I0.MN5.psub!
        I0.MN4.psub!
        I0.MN3.psub!
        I0.MN2.psub!
        Further occurrences of this notice will be suppressed.
Notice from spectre during initial setup.
    Multithreading is disabled due to the size of the design being too small.


Netlist title:
        // Point Netlist Generated on: Apr 16 09:02:34 2026


Global user options:
         psfversion = 1.4.0
            vabstol = 1e-06
            iabstol = 1e-12
               temp = -40
           homotopy = 5
              limit = delta
         compatible = spice2
               gmin = 1e-12
             rforce = 1
           maxnotes = 5
           maxwarns = 5
             digits = 5
               cols = 80
             pivrel = 0.001
           sensfile = ../psf/sens.output
     checklimitdest = psf
     enable_pre_ver = yes
      ignorezerovar = yes
               save = allpub
             reltol = 0.0001
               tnom = 27
             scalem = 1
              scale = 1

Scoped user options:

Circuit inventory:
              nodes 88
            bsim3v3 35    
     bsource_19b458 2     
          capacitor 38    
         cpoly_ahdl 17    
            isource 1     
          modn_ahdl 19    
          modp_ahdl 16    
           resistor 1     
        rpolyh_ahdl 2     
            vsource 8     

Analysis and control statement inventory:
                 dc 1     
               info 8     
               tran 1     

Output statements:
             .probe 0     
           .measure 0     
               save 0     

Design checks inventory:
          paramtest 55    
             assert 175   


Notice from spectre during initial setup.
    APS enabled.
    1 notice suppressed.
    72 warnings suppressed.

Time for parsing: CPU = 17.49 ms, elapsed = 654.19 ms.
Time accumulated: CPU = 440.824 ms, elapsed = 1.04282 s.
Peak resident memory used = 197 Mbytes.

~~~~~~~~~~~~~~~~~~~~~~
Pre-Simulation Summary
~~~~~~~~~~~~~~~~~~~~~~
   -   (APS) Multi-threading. The recommended number of threads is 1, consider adding +mt=1 on command line.
~~~~~~~~~~~~~~~~~~~~~~

******************
DC Analysis `dcOp'
******************

Notice from spectre during DC analysis `dcOp'.
    No checklimit analysis defined for asserts. A default checklimit analysis 'SpectreChecklimitAnal' has been created with all asserts enabled.


Opening the PSF file ../psf/dcOp.dc ...
Important parameter values:
    reltol = 100e-06
    abstol(V) = 1 uV
    abstol(I) = 1 pA
    temp = -40 C
    tnom = 27 C
    tempeffects = all
    gmindc = 1 pS
    rabsshort = 1 mOhm

Notice from spectre during DC analysis `dcOp'.
    GminDC = 1 pS is large enough to noticeably affect the DC solution.
        dV(vout) = -223.745 uV
        Use the `gmin_check' option to eliminate or expand this report.
    Bad pivoting is found during DC analysis. Option dc_pivot_check=yes is recommended for possible improvement of convergence.


Maximum value achieved for any signal of each quantity: 
V: V(S<0>) = 3.3 V
I: I(V0:p) = 6.453 uA
Maximum value of each quantity, excluding Verilog-A modules or dangling current sources:
V: V(vout_filt) = 1.6 V
I: I(V0:p) = 6.453 uA

Warning from spectre during check, during DC analysis `dcOp'.
    WARNING (CMI-2943): Parameter checks have been ignored because the valid value for parameter 'trise' could not be found in 'C1'.
    WARNING (CMI-2943): Parameter checks have been ignored because the valid value for parameter 'trise' could not be found in 'I0.R2.CM'.
    WARNING (CMI-2943): Parameter checks have been ignored because the valid value for parameter 'trise' could not be found in 'I0.R2.CS1'.
    WARNING (CMI-2943): Parameter checks have been ignored because the valid value for parameter 'trise' could not be found in 'I0.R2.CS0'.
    WARNING (CMI-2943): Parameter checks have been ignored because the valid value for parameter 'trise' could not be found in 'I0.C3.C1'.
        Further occurrences of this warning will be suppressed.

Convergence achieved in 17 iterations.
DC simulation time: CPU = 88.088 ms, elapsed = 92.2282 ms.
Total time required for dc analysis `dcOp': CPU = 88.285 ms, elapsed = 92.4151 ms, util. = 95.5%.
Time accumulated: CPU = 552.921 ms, elapsed = 1.15974 s.
Peak resident memory used = 205 Mbytes.


Notice from spectre.
    12 warnings suppressed.

dcOpInfo: writing operating point information to rawfile.

Opening the PSF file ../psf/dcOpInfo.info ...

************************************************
Transient Analysis `tran': time = (0 s -> 40 ms)
************************************************

Notice from spectre during IC analysis, during transient analysis `tran'.
    GminDC = 1 pS is large enough to noticeably affect the DC solution.
        dV(vout) = -223.746 uV
        Use the `gmin_check' option to eliminate or expand this report.
    Bad pivoting is found during DC analysis. Option dc_pivot_check=yes is recommended for possible improvement of convergence.
Warning from spectre during check, during IC analysis, during transient analysis `tran'.
    WARNING (CMI-2943): Parameter checks have been ignored because the valid value for parameter 'trise' could not be found in 'C1'.
    WARNING (CMI-2943): Parameter checks have been ignored because the valid value for parameter 'trise' could not be found in 'I0.R2.CM'.
    WARNING (CMI-2943): Parameter checks have been ignored because the valid value for parameter 'trise' could not be found in 'I0.R2.CS1'.
    WARNING (CMI-2943): Parameter checks have been ignored because the valid value for parameter 'trise' could not be found in 'I0.R2.CS0'.
    WARNING (CMI-2943): Parameter checks have been ignored because the valid value for parameter 'trise' could not be found in 'I0.C3.C1'.
        Further occurrences of this warning will be suppressed.

Convergence achieved in 2 iterations.
DC simulation time: CPU = 1.08 ms, elapsed = 1.08099 ms.

Opening the PSF file ../psf/tran.tran.tran ...
Important parameter values:
    start = 0 s
    outputstart = 0 s
    stop = 40 ms
    step = 40 us
    maxstep = 400 us
    ic = all
    useprevic = no
    skipdc = no
    reltol = 10e-06
    abstol(V) = 1 uV
    abstol(I) = 1 pA
    temp = -40 C
    tnom = 27 C
    tempeffects = all
    errpreset = conservative
    method = gear2only
    lteratio = 10
    relref = alllocal
    cmin = 0 F
    gmin = 1 pS
    rabsshort = 1 mOhm


Notice from spectre during transient analysis `tran'.
    Multithreading is disabled due to the size of the design being too small.


Output and IC/nodeset summary:
                 save   8       (current)
                 save   87      (voltage)

    tran: time = 1.024 ms    (2.56 %), step = 48.19 us     (120 m%)
    tran: time = 3.037 ms    (7.59 %), step = 47.21 us     (118 m%)
    tran: time = 5.005 ms    (12.5 %), step = 50 us        (125 m%)
    tran: time = 7.018 ms    (17.5 %), step = 48.69 us     (122 m%)
    tran: time = 9.032 ms    (22.6 %), step = 47.59 us     (119 m%)
    tran: time = 11.05 ms    (27.6 %), step = 46.75 us     (117 m%)
    tran: time = 13.01 ms    (32.5 %), step = 49.23 us     (123 m%)
    tran: time = 15.03 ms    (37.6 %), step = 48.05 us     (120 m%)
    tran: time = 17.04 ms    (42.6 %), step = 47.09 us     (118 m%)
    tran: time = 19.01 ms    (47.5 %), step = 49.82 us     (125 m%)
    tran: time = 21.02 ms    (52.5 %), step = 48.54 us     (121 m%)
    tran: time = 23.03 ms    (57.6 %), step = 47.48 us     (119 m%)
    tran: time = 25 ms       (62.5 %), step = 50 us        (125 m%)
    tran: time = 27.01 ms    (67.5 %), step = 49.07 us     (123 m%)
    tran: time = 29.03 ms    (72.6 %), step = 47.91 us     (120 m%)
    tran: time = 31.04 ms    (77.6 %), step = 46.99 us     (117 m%)
    tran: time = 33.01 ms    (82.5 %), step = 49.65 us     (124 m%)
    tran: time = 35.02 ms    (87.6 %), step = 48.4 us      (121 m%)
    tran: time = 37.04 ms    (92.6 %), step = 47.36 us     (118 m%)
    tran: time = 39 ms       (97.5 %), step = 50 us        (125 m%)
Number of accepted tran steps =             851

Maximum value achieved for any signal of each quantity: 
V: V(S<0>) = 3.3 V
I: I(V0:p) = 6.454 uA
Maximum value of each quantity, excluding Verilog-A modules or dangling current sources:
V: V(vout_filt) = 1.614 V
I: I(V0:p) = 6.454 uA

~~~~~~~~~~~~~~~~~~~~~~~~~~~~~~~~~
Post-Transient Simulation Summary
~~~~~~~~~~~~~~~~~~~~~~~~~~~~~~~~~
   -   To further speed up simulation, consider
          add ++aps on command line
   -   Non-default settings that could significantly slow down simulation
          errpreset = conservative, default moderate
          reltol = 10e-06, default 100e-06 (conservative)
~~~~~~~~~~~~~~~~~~~~~~~~~~~~~~~~~


During simulation, the CPU load for active processors is :
         0 (29.0 %)      1 (4.6 %)       2 (21.5 %)      3 (100.0 %)
         4 (3.8 %)       5 (5.8 %)       6 (3.9 %)       7 (2.6 %)
         8 (94.4 %)      9 (20.9 %)     10 (3.9 %)      11 (3.2 %)
        12 (7.6 %)      13 (6.5 %)      14 (4.5 %)      15 (35.7 %)
        16 (16.6 %)     17 (17.9 %)     18 (51.0 %)     19 (22.9 %)
        20 (8.4 %)      21 (73.2 %)     22 (33.3 %)     23 (14.8 %)
        24 (10.9 %)     25 (29.9 %)     26 (52.9 %)     27 (100.0 %)
        28 (5.8 %)      29 (1.9 %)      30 (5.8 %)      31 (5.1 %)
        32 (5.1 %)      33 (3.9 %)      34 (5.7 %)      35 (4.5 %)
        36 (3.8 %)      37 (23.4 %)     38 (33.8 %)     39 (100.0 %)
        40 (40.1 %)     41 (14.5 %)     42 (2.6 %)      43 (1.9 %)
        44 (5.7 %)      45 (7.6 %)      46 (10.2 %)     47 (3.2 %)
        Total: 1064.5%
Initial condition solution time: CPU = 1.139 ms, elapsed = 1.14012 ms.
Intrinsic tran analysis time:    CPU = 472.994 ms, elapsed = 474.474 ms.
Total time required for tran analysis `tran': CPU = 476.493 ms, elapsed = 478.627 ms, util. = 99.6%.
Time accumulated: CPU = 1.03861 s, elapsed = 1.64998 s.
Peak resident memory used = 209 Mbytes.


Notice from spectre.
    12 warnings suppressed.

finalTimeOP: writing operating point information to rawfile.

Opening the PSF file ../psf/finalTimeOP.info ...
modelParameter: writing model parameter values to rawfile.

Opening the PSF file ../psf/modelParameter.info ...
element: writing instance parameter values to rawfile.

Opening the PSF file ../psf/element.info ...
outputParameter: writing output parameter values to rawfile.

Opening the PSF file ../psf/outputParameter.info ...
designParamVals: writing netlist parameters to rawfile.

Opening the PSFASCII file ../psf/designParamVals.info ...
primitives: writing primitives to rawfile.

Opening the PSFASCII file ../psf/primitives.info.primitives ...
subckts: writing subcircuits to rawfile.

Opening the PSFASCII file ../psf/subckts.info.subckts ...
Licensing Information:
Lic Summary:
[09:02:37.191040] Cdslmd servers:3000@lic08.ug.kth.se:29000@lic06.ug.kth.se
[09:02:37.191097] Feature usage summary:
[09:02:37.191099] Virtuoso_Multi_mode_Simulation


Aggregate audit (9:02:37 AM, Thur Apr 16, 2026):
Time used: CPU = 1.08 s, elapsed = 1.7 s, util. = 63.4%.
Time spent in licensing: elapsed = 51.1 ms.
Peak memory used = 210 Mbytes.
Simulation started at: 9:02:35 AM, Thur Apr 16, 2026, ended at: 9:02:37 AM, Thur Apr 16, 2026, with elapsed time (wall clock): 1.7 s.
spectre completes with 0 errors, 27 warnings, and 14 notices.


********* LOG ENDS **************
**                             **
**                             **
********* LOG STARTS ************



Spectre (R) Circuit Simulator
Version 24.1.0.288.isr5 64bit -- 3 Apr 2025
Copyright (C) 1989-2025 Cadence Design Systems, Inc. All rights reserved worldwide. Cadence and Spectre are registered trademarks of Cadence Design Systems, Inc. All others are the property of their respective holders.

Includes RSA BSAFE(R) Cryptographic or Security Protocol Software from RSA Security, Inc.

User: davidevi   Host: il2244vt26_davidevi   HostID: 11AC2C00   PID: 1044418
Memory  available: 3.0451 TB  physical: 3.2467 TB
Linux   : Rocky Linux release 8.10 (Green Obsidian)
CPU Type: Intel(R) Xeon(R) CPU E7-8857 v2 @ 3.00GHz
        Socket: Processors [Frequency]
        0:       0 [2700.0],  1 [1200.0],  2 [2999.9],  3 [2999.9],  4 [2700.0]
                 5 [3600.0],  6 [3600.0],  7 [2600.0],  8 [3600.0],  9 [1200.0]
                10 [2999.9], 11 [3300.0]
        1:      12 [3600.0], 13 [3600.0], 14 [3000.0], 15 [2700.0], 16 [2999.9]
                17 [2999.9], 18 [3200.0], 19 [3400.0], 20 [2999.9], 21 [3600.0]
                22 [3600.0], 23 [3600.0]
        2:      24 [3600.0], 25 [3600.0], 26 [2500.0], 27 [2999.9], 28 [2600.0]
                29 [3600.0], 30 [2999.9], 31 [3000.0], 32 [3600.0], 33 [3600.0]
                34 [2999.9], 35 [3600.0]
        3:      36 [3600.0], 37 [3600.0], 38 [3600.0], 39 [2999.9], 40 [2999.9]
                41 [2500.0], 42 [3600.0], 43 [2500.0], 44 [2999.9], 45 [3600.0]
                46 [3500.0], 47 [3300.0]
        
System load averages (1min, 5min, 15min) : 19.5 %, 15.6 %, 15.2 %
HPC is enabled


Simulating `input.scs' on il2244vt26_davidevi at 9:02:31 AM, Thur Apr 16, 2026 (process id: 1044418).
Current working directory: /home/davidevi/Desktop/myproject/Sim/VGA/VGA_1_tb/adexl/results/data/Interactive.107/18/Linerity/netlist
Command line:
    /opt/tools/cadence/installs/SPECTRE241/tools/bin/spectre -64  \
        input.scs +escchars +log ../psf/spectre.out -format psfbin  \
        +rtsf -raw ../psf +aps +mt +lqtimeout 900 -maxw 5 -maxn 5  \
        +param /opt/pdk/ams/410/spectre/ams_range.lmts -env ade  \
        -ahdllibdir  \
        /home/davidevi/Desktop/myproject/Sim/VGA/VGA_1_tb/adexl/results/data/Interactive.107/sharedData/Job472/ahdl/input.ahdlSimDB  \
        +logstatus  \
        +adespetkn=0001089D13A302B663E41FB550AF0DF415A679A322D5069144BF588C12F604E07EF416DC01A319B562BB63D35BD71D9E45A327F237EF10A05AE951B27ADD4F9255A879D15D9175FF34986BDD0AF002BA50FD7FD707E002A700AC1C8412F74CEA0EA979D121F874D3349879D118F874D334981031BD5ED1755D780000368B

Simulation Id: iMKd0RnqdsYdISa0
Licensing Information:
[09:02:31.121722] Configured Lic search path (24.01-s002): 3000@lic08.ug.kth.se:29000@lic06.ug.kth.se

Licensing Information:
[09:02:31.454442] Periodic Lic check successful

Loading /opt/tools/cadence/installs/SPECTRE241/tools.lnx86/cmi/lib/64bit/5.0/libinfineon_sh.so ...
Loading /opt/tools/cadence/installs/SPECTRE241/tools.lnx86/cmi/lib/64bit/5.0/libphilips_I_sh.so ...
Loading /opt/tools/cadence/installs/SPECTRE241/tools.lnx86/cmi/lib/64bit/5.0/libphilips_sh.so ...
Loading /opt/tools/cadence/installs/SPECTRE241/tools.lnx86/cmi/lib/64bit/5.0/libsparam_sh.so ...
Loading /opt/tools/cadence/installs/SPECTRE241/tools.lnx86/cmi/lib/64bit/5.0/libstmodels_sh.so ...

Warning from spectre.
    WARNING (SPECTRE-691): This CPU processor does not support x86 advanced vector extensions instructions. This may affect math operations and slow down the simulation.

Reading file:  /home/davidevi/Desktop/myproject/Sim/VGA/VGA_1_tb/adexl/results/data/Interactive.107/18/Linerity/netlist/input.scs
Reading file:  /opt/pdk/ams/410/spectre/ams_range.lmts

Warning from spectre during read of parameter soft limits file `/opt/pdk/ams/410/spectre/ams_range.lmts', during circuit read-in.
    WARNING (SPECTRE-8360): line 1511: `ac' is an undefined primitive device.
    WARNING (SPECTRE-8360): line 1512: `ac' is an undefined primitive device.
    WARNING (SPECTRE-8360): line 1513: `ac' is an undefined primitive device.
    WARNING (SPECTRE-8360): line 1514: `ac' is an undefined primitive device.
    WARNING (SPECTRE-8360): line 1515: `ac' is an undefined primitive device.
        Further occurrences of this warning will be suppressed.

Reading file:  /opt/tools/cadence/installs/SPECTRE241/tools.lnx86/spectre/etc/configs/spectre.cfg
Reading file:  /opt/pdk/ams/410/spectre/c35/soac/soac.scs
Reading file:  /opt/pdk/ams/410/spectre/c35/soac/processOption.scs
Reading file:  /opt/pdk/ams/410/spectre/c35/soac/process.scs
Reading file:  /opt/pdk/ams/410/spectre/c35/soac/soac.va

Warning from spectre during AHDL read-in.
    WARNING (VACOMP-2435): The environment variable CDS_AHDLCMI_ENABLE is no longer supported. Therefore, the simulator will use the default compiled C code flow.

Reading link:  /opt/tools/cadence/installs/SPECTRE241/tools.lnx86/spectre/etc/ahdl/constants.h
Reading file:  /opt/tools/cadence/installs/SPECTRE241/tools.lnx86/spectre/etc/ahdl/constants.vams
Reading link:  /opt/tools/cadence/installs/SPECTRE241/tools.lnx86/spectre/etc/ahdl/discipline.h
Reading file:  /opt/tools/cadence/installs/SPECTRE241/tools.lnx86/spectre/etc/ahdl/disciplines.vams
Reading file:  /opt/pdk/ams/410/spectre/c35/processOption/C35B4C3.scs
Reading file:  /opt/pdk/ams/410/spectre/c35/soac/cmos53.scs
Reading file:  /opt/pdk/ams/410/spectre/c35/soac/res.scs
Reading file:  /opt/pdk/ams/410/spectre/c35/soac/cap.scs
Reading file:  /opt/pdk/ams/410/spectre/c35/soac/bip.scs
Reading file:  /opt/pdk/ams/410/spectre/c35/soac/ind.scs
Reading file:  /opt/pdk/ams/410/spectre/c35/soac/esddiode.scs
Time for NDB Parsing: CPU = 180.627 ms, elapsed = 321.242 ms.
Time accumulated: CPU = 382.393 ms, elapsed = 321.245 ms.
Peak resident memory used = 175 Mbytes.

Existing shared object for module modn_ahdl is up to date.
Installed compiled interface for modn_ahdl.
Existing shared object for module modp_ahdl is up to date.
Installed compiled interface for modp_ahdl.
Existing shared object for module cpoly_ahdl is up to date.
Installed compiled interface for cpoly_ahdl.
Existing shared object for module rpolyh_ahdl is up to date.
Installed compiled interface for rpolyh_ahdl.
Existing shared object for module bsource_19b458 is up to date.
Installed compiled interface for bsource_19b458.
Time for Elaboration: CPU = 46.926 ms, elapsed = 48.506 ms.
Time accumulated: CPU = 429.492 ms, elapsed = 369.923 ms.
Peak resident memory used = 188 Mbytes.


Notice from spectre during hierarchy flattening.
    The value 'psf' specified for the 'checklimitdest' option will no longer be supported in future releases. Use 'spectre -h' to see other recommended values for the 'checklimitdest' option.


*****************************************************************************************
* 
* INFO: AMS_processOption = C35B4C3
* 
* INFO: Valid Modules  PIP VG5 HIRES
* 
*****************************************************************************************


Time for EDB Visiting: CPU = 7.718 ms, elapsed = 7.74693 ms.
Time accumulated: CPU = 437.377 ms, elapsed = 377.837 ms.
Peak resident memory used = 190 Mbytes.

Loading /opt/tools/cadence/installs/SPECTRE241/tools.lnx86/mdl/lib/64bit/libSpectreEH_sh.so ...

Warning from spectre during initial setup.
    WARNING (SPECTRE-16460): SOAC_cvarm_vspsub:Specified subcircuit master `cvarm' was not found.
    WARNING (SPECTRE-16462): SOAC_cvarm_vspsub:Error in specification of subcircuit master. Assert is ignored.
    WARNING (SPECTRE-16460): SOAC_cvarm_vbs:Specified subcircuit master `cvarm' was not found.
    WARNING (SPECTRE-16462): SOAC_cvarm_vbs:Error in specification of subcircuit master. Assert is ignored.
    WARNING (SPECTRE-16460): SOAC_cvarm_vgb:Specified subcircuit master `cvarm' was not found.
    WARNING (SPECTRE-16462): SOAC_cvarm_vgb:Error in specification of subcircuit master. Assert is ignored.
    WARNING (SPECTRE-16460): SOAC_cvart_vspsub:Specified subcircuit master `cvart' was not found.
    WARNING (SPECTRE-16462): SOAC_cvart_vspsub:Error in specification of subcircuit master. Assert is ignored.
    WARNING (SPECTRE-16460): SOAC_cvart_vbs:Specified subcircuit master `cvart' was not found.
        Further occurrences of this warning will be suppressed.
    WARNING (SPECTRE-16462): SOAC_cvart_vbs:Error in specification of subcircuit master. Assert is ignored.
        Further occurrences of this warning will be suppressed.
Notice from spectre during topology check.
    Only one connection to the following 43 nodes:
        I0.MN6.psub!
        I0.MN5.psub!
        I0.MN4.psub!
        I0.MN3.psub!
        I0.MN2.psub!
        Further occurrences of this notice will be suppressed.
Notice from spectre during initial setup.
    Multithreading is disabled due to the size of the design being too small.


Netlist title:
        // Point Netlist Generated on: Apr 16 09:02:30 2026


Global user options:
         psfversion = 1.4.0
            vabstol = 1e-06
            iabstol = 1e-12
               temp = -40
           homotopy = 5
              limit = delta
         compatible = spice2
               gmin = 1e-12
             rforce = 1
           maxnotes = 5
           maxwarns = 5
             digits = 5
               cols = 80
             pivrel = 0.001
           sensfile = ../psf/sens.output
     checklimitdest = psf
     enable_pre_ver = yes
      ignorezerovar = yes
               save = allpub
             reltol = 0.0001
               tnom = 27
             scalem = 1
              scale = 1

Scoped user options:

Circuit inventory:
              nodes 88
            bsim3v3 35    
     bsource_19b458 2     
          capacitor 38    
         cpoly_ahdl 17    
            isource 1     
          modn_ahdl 19    
          modp_ahdl 16    
           resistor 1     
        rpolyh_ahdl 2     
            vsource 8     

Analysis and control statement inventory:
                 dc 1     
               info 8     
               tran 1     

Output statements:
             .probe 0     
           .measure 0     
               save 0     

Design checks inventory:
          paramtest 55    
             assert 175   


Notice from spectre during initial setup.
    APS enabled.
    1 notice suppressed.
    72 warnings suppressed.

Time for parsing: CPU = 18.704 ms, elapsed = 645.114 ms.
Time accumulated: CPU = 456.197 ms, elapsed = 1.02307 s.
Peak resident memory used = 197 Mbytes.

~~~~~~~~~~~~~~~~~~~~~~
Pre-Simulation Summary
~~~~~~~~~~~~~~~~~~~~~~
   -   (APS) Multi-threading. The recommended number of threads is 1, consider adding +mt=1 on command line.
~~~~~~~~~~~~~~~~~~~~~~

******************
DC Analysis `dcOp'
******************

Notice from spectre during DC analysis `dcOp'.
    No checklimit analysis defined for asserts. A default checklimit analysis 'SpectreChecklimitAnal' has been created with all asserts enabled.


Opening the PSF file ../psf/dcOp.dc ...
Important parameter values:
    reltol = 100e-06
    abstol(V) = 1 uV
    abstol(I) = 1 pA
    temp = -40 C
    tnom = 27 C
    tempeffects = all
    gmindc = 1 pS
    rabsshort = 1 mOhm

Notice from spectre during DC analysis `dcOp'.
    GminDC = 1 pS is large enough to noticeably affect the DC solution.
        dV(vout) = -224 uV
        Use the `gmin_check' option to eliminate or expand this report.
    Bad pivoting is found during DC analysis. Option dc_pivot_check=yes is recommended for possible improvement of convergence.


Maximum value achieved for any signal of each quantity: 
V: V(S<0>) = 3.3 V
I: I(V0:p) = 6.453 uA
Maximum value of each quantity, excluding Verilog-A modules or dangling current sources:
V: V(vout_filt) = 1.6 V
I: I(V0:p) = 6.453 uA

Warning from spectre during check, during DC analysis `dcOp'.
    WARNING (CMI-2943): Parameter checks have been ignored because the valid value for parameter 'trise' could not be found in 'C1'.
    WARNING (CMI-2943): Parameter checks have been ignored because the valid value for parameter 'trise' could not be found in 'I0.R2.CM'.
    WARNING (CMI-2943): Parameter checks have been ignored because the valid value for parameter 'trise' could not be found in 'I0.R2.CS1'.
    WARNING (CMI-2943): Parameter checks have been ignored because the valid value for parameter 'trise' could not be found in 'I0.R2.CS0'.
    WARNING (CMI-2943): Parameter checks have been ignored because the valid value for parameter 'trise' could not be found in 'I0.C3.C1'.
        Further occurrences of this warning will be suppressed.

Convergence achieved in 21 iterations.
DC simulation time: CPU = 89.543 ms, elapsed = 93.5781 ms.
Total time required for dc analysis `dcOp': CPU = 89.717 ms, elapsed = 93.7431 ms, util. = 95.7%.
Time accumulated: CPU = 569.785 ms, elapsed = 1.14127 s.
Peak resident memory used = 205 Mbytes.


Notice from spectre.
    12 warnings suppressed.

dcOpInfo: writing operating point information to rawfile.

Opening the PSF file ../psf/dcOpInfo.info ...

************************************************
Transient Analysis `tran': time = (0 s -> 40 ms)
************************************************

Notice from spectre during IC analysis, during transient analysis `tran'.
    GminDC = 1 pS is large enough to noticeably affect the DC solution.
        dV(vout) = -224 uV
        Use the `gmin_check' option to eliminate or expand this report.
    Bad pivoting is found during DC analysis. Option dc_pivot_check=yes is recommended for possible improvement of convergence.
Warning from spectre during check, during IC analysis, during transient analysis `tran'.
    WARNING (CMI-2943): Parameter checks have been ignored because the valid value for parameter 'trise' could not be found in 'C1'.
    WARNING (CMI-2943): Parameter checks have been ignored because the valid value for parameter 'trise' could not be found in 'I0.R2.CM'.
    WARNING (CMI-2943): Parameter checks have been ignored because the valid value for parameter 'trise' could not be found in 'I0.R2.CS1'.
    WARNING (CMI-2943): Parameter checks have been ignored because the valid value for parameter 'trise' could not be found in 'I0.R2.CS0'.
    WARNING (CMI-2943): Parameter checks have been ignored because the valid value for parameter 'trise' could not be found in 'I0.C3.C1'.
        Further occurrences of this warning will be suppressed.

Convergence achieved in 2 iterations.
DC simulation time: CPU = 1.222 ms, elapsed = 1.22309 ms.

Opening the PSF file ../psf/tran.tran.tran ...
Important parameter values:
    start = 0 s
    outputstart = 0 s
    stop = 40 ms
    step = 40 us
    maxstep = 400 us
    ic = all
    useprevic = no
    skipdc = no
    reltol = 10e-06
    abstol(V) = 1 uV
    abstol(I) = 1 pA
    temp = -40 C
    tnom = 27 C
    tempeffects = all
    errpreset = conservative
    method = gear2only
    lteratio = 10
    relref = alllocal
    cmin = 0 F
    gmin = 1 pS
    rabsshort = 1 mOhm


Notice from spectre during transient analysis `tran'.
    Multithreading is disabled due to the size of the design being too small.


Output and IC/nodeset summary:
                 save   8       (current)
                 save   87      (voltage)

    tran: time = 1.021 ms    (2.55 %), step = 48.39 us     (121 m%)
    tran: time = 3.035 ms    (7.59 %), step = 47.36 us     (118 m%)
    tran: time = 5.002 ms    (12.5 %), step = 50 us        (125 m%)
    tran: time = 7.016 ms    (17.5 %), step = 48.9 us      (122 m%)
    tran: time = 9.029 ms    (22.6 %), step = 47.77 us     (119 m%)
    tran: time = 11.04 ms    (27.6 %), step = 46.88 us     (117 m%)
    tran: time = 13.01 ms    (32.5 %), step = 49.45 us     (124 m%)
    tran: time = 15.02 ms    (37.6 %), step = 48.24 us     (121 m%)
    tran: time = 17.04 ms    (42.6 %), step = 47.24 us     (118 m%)
    tran: time = 19 ms       (47.5 %), step = 50 us        (125 m%)
    tran: time = 21.02 ms    (52.5 %), step = 48.74 us     (122 m%)
    tran: time = 23.03 ms    (57.6 %), step = 47.63 us     (119 m%)
    tran: time = 25.04 ms    (62.6 %), step = 46.78 us     (117 m%)
    tran: time = 27.01 ms    (67.5 %), step = 49.27 us     (123 m%)
    tran: time = 29.03 ms    (72.6 %), step = 48.09 us     (120 m%)
    tran: time = 31.04 ms    (77.6 %), step = 47.12 us     (118 m%)
    tran: time = 33.01 ms    (82.5 %), step = 49.88 us     (125 m%)
    tran: time = 35.02 ms    (87.5 %), step = 48.58 us     (121 m%)
    tran: time = 37.03 ms    (92.6 %), step = 47.51 us     (119 m%)
    tran: time = 39.05 ms    (97.6 %), step = 46.68 us     (117 m%)
Number of accepted tran steps =             851

Maximum value achieved for any signal of each quantity: 
V: V(S<0>) = 3.3 V
I: I(V0:p) = 6.454 uA
Maximum value of each quantity, excluding Verilog-A modules or dangling current sources:
V: V(vout_filt) = 1.614 V
I: I(V0:p) = 6.454 uA

~~~~~~~~~~~~~~~~~~~~~~~~~~~~~~~~~
Post-Transient Simulation Summary
~~~~~~~~~~~~~~~~~~~~~~~~~~~~~~~~~
   -   To further speed up simulation, consider
          add ++aps on command line
   -   Non-default settings that could significantly slow down simulation
          errpreset = conservative, default moderate
          reltol = 10e-06, default 100e-06 (conservative)
~~~~~~~~~~~~~~~~~~~~~~~~~~~~~~~~~


During simulation, the CPU load for active processors is :
         0 (5.2 %)       1 (9.7 %)       2 (21.7 %)      3 (100.0 %)
         4 (5.8 %)       5 (20.5 %)      6 (8.6 %)       7 (3.9 %)
         8 (42.6 %)      9 (29.9 %)     10 (41.7 %)     11 (7.1 %)
        12 (9.1 %)      13 (6.5 %)      14 (34.8 %)     15 (17.6 %)
        16 (100.0 %)    17 (8.4 %)      18 (48.4 %)     19 (5.2 %)
        20 (14.8 %)     21 (9.0 %)      22 (5.8 %)      23 (12.2 %)
        24 (13.1 %)     25 (3.3 %)      26 (3.2 %)      27 (100.0 %)
        28 (1.9 %)      29 (5.8 %)      30 (40.8 %)     31 (2.6 %)
        32 (1.9 %)      33 (49.7 %)     34 (5.8 %)      35 (2.6 %)
        36 (7.1 %)      37 (14.2 %)     38 (7.8 %)      39 (100.0 %)
        40 (13.1 %)     41 (45.6 %)     42 (5.8 %)      43 (9.7 %)
        44 (16.0 %)     45 (48.7 %)     46 (35.3 %)     47 (6.5 %)
        Total: 1109.1%
Initial condition solution time: CPU = 1.259 ms, elapsed = 1.261 ms.
Intrinsic tran analysis time:    CPU = 472.731 ms, elapsed = 474.378 ms.
Total time required for tran analysis `tran': CPU = 476.415 ms, elapsed = 478.718 ms, util. = 99.5%.
Time accumulated: CPU = 1.05599 s, elapsed = 1.63285 s.
Peak resident memory used = 208 Mbytes.


Notice from spectre.
    12 warnings suppressed.

finalTimeOP: writing operating point information to rawfile.

Opening the PSF file ../psf/finalTimeOP.info ...
modelParameter: writing model parameter values to rawfile.

Opening the PSF file ../psf/modelParameter.info ...
element: writing instance parameter values to rawfile.

Opening the PSF file ../psf/element.info ...
outputParameter: writing output parameter values to rawfile.

Opening the PSF file ../psf/outputParameter.info ...
designParamVals: writing netlist parameters to rawfile.

Opening the PSFASCII file ../psf/designParamVals.info ...
primitives: writing primitives to rawfile.

Opening the PSFASCII file ../psf/primitives.info.primitives ...
subckts: writing subcircuits to rawfile.

Opening the PSFASCII file ../psf/subckts.info.subckts ...
Licensing Information:
Lic Summary:
[09:02:32.444624] Cdslmd servers:3000@lic08.ug.kth.se:29000@lic06.ug.kth.se
[09:02:32.968955] Feature usage summary:
[09:02:32.968960] Virtuoso_Multi_mode_Simulation


Aggregate audit (9:02:32 AM, Thur Apr 16, 2026):
Time used: CPU = 1.1 s, elapsed = 1.68 s, util. = 65.2%.
Time spent in licensing: elapsed = 50.7 ms.
Peak memory used = 210 Mbytes.
Simulation started at: 9:02:31 AM, Thur Apr 16, 2026, ended at: 9:02:32 AM, Thur Apr 16, 2026, with elapsed time (wall clock): 1.68 s.
spectre completes with 0 errors, 27 warnings, and 14 notices.


********* LOG ENDS **************
**                             **
**                             **
********* LOG STARTS ************



Spectre (R) Circuit Simulator
Version 24.1.0.288.isr5 64bit -- 3 Apr 2025
[...]
        Socket: Processors [Frequency]
        0:       0 [3000.0],  1 [2999.9],  2 [1200.0],  3 [2999.9],  4 [2200.0]
                 5 [2800.0],  6 [1200.0],  7 [1200.0],  8 [1200.0],  9 [2700.0]
                10 [1200.0], 11 [2999.9]
        1:      12 [3600.0], 13 [2999.9], 14 [1200.0], 15 [3600.0], 16 [3200.0]
                17 [3600.0], 18 [3600.0], 19 [2999.9], 20 [3600.0], 21 [1200.0]
                22 [3600.0], 23 [3600.0]
        2:      24 [2600.0], 25 [3600.0], 26 [2999.9], 27 [2999.9], 28 [3600.0]
                29 [3600.0], 30 [3100.0], 31 [2500.0], 32 [2999.9], 33 [2500.0]
                34 [2500.0], 35 [3600.0]
        3:      36 [3600.0], 37 [1200.0], 38 [2400.0], 39 [2999.9], 40 [2400.0]
                41 [3600.0], 42 [1200.0], 43 [1200.0], 44 [1200.0], 45 [2999.9]
                46 [1200.0], 47 [3600.0]
        
System load averages (1min, 5min, 15min) : 17.7 %, 15.1 %, 15.1 %
HPC is enabled


Simulating `input.scs' on il2244vt26_davidevi at 9:02:18 AM, Thur Apr 16, 2026 (process id: 1042538).
Current working directory: /home/davidevi/Desktop/myproject/Sim/VGA/VGA_1_tb/adexl/results/data/Interactive.107/5/Linerity/netlist
Command line:
    /opt/tools/cadence/installs/SPECTRE241/tools/bin/spectre -64  \
        input.scs +escchars +log ../psf/spectre.out -format psfbin  \
        +rtsf -raw ../psf +aps +mt +lqtimeout 900 -maxw 5 -maxn 5  \
        +param /opt/pdk/ams/410/spectre/ams_range.lmts -env ade  \
        -ahdllibdir  \
        /home/davidevi/Desktop/myproject/Sim/VGA/VGA_1_tb/adexl/results/data/Interactive.107/sharedData/Job473/ahdl/input.ahdlSimDB  \
        +logstatus  \
        +adespetkn=0001089D13A302B663E41FB550AF0DF415A679A322D5069144BF588C12F604E07EF416DC01A319B562BB63D37BF43DBD45A35CDF7BA821EA60A10D865BC94F9202FD79D15D9175FF34986BDD0AF002BA50FD7FD707E002A700AC1C8618F746EA0EAB79D128F874D3349879D118F874D334981031BD61D14A5D78000036B4

Simulation Id: In6iq7T9U9xpB26e
Licensing Information:
[09:02:18.121762] Configured Lic search path (24.01-s002): 3000@lic08.ug.kth.se:29000@lic06.ug.kth.se

Licensing Information:
[09:02:18.486937] Periodic Lic check successful

Loading /opt/tools/cadence/installs/SPECTRE241/tools.lnx86/cmi/lib/64bit/5.0/libinfineon_sh.so ...
Loading /opt/tools/cadence/installs/SPECTRE241/tools.lnx86/cmi/lib/64bit/5.0/libphilips_I_sh.so ...
Loading /opt/tools/cadence/installs/SPECTRE241/tools.lnx86/cmi/lib/64bit/5.0/libphilips_sh.so ...
Loading /opt/tools/cadence/installs/SPECTRE241/tools.lnx86/cmi/lib/64bit/5.0/libsparam_sh.so ...
Loading /opt/tools/cadence/installs/SPECTRE241/tools.lnx86/cmi/lib/64bit/5.0/libstmodels_sh.so ...

Warning from spectre.
    WARNING (SPECTRE-691): This CPU processor does not support x86 advanced vector extensions instructions. This may affect math operations and slow down the simulation.

Reading file:  /home/davidevi/Desktop/myproject/Sim/VGA/VGA_1_tb/adexl/results/data/Interactive.107/5/Linerity/netlist/input.scs
Reading file:  /opt/pdk/ams/410/spectre/ams_range.lmts

Warning from spectre during read of parameter soft limits file `/opt/pdk/ams/410/spectre/ams_range.lmts', during circuit read-in.
    WARNING (SPECTRE-8360): line 1511: `ac' is an undefined primitive device.
    WARNING (SPECTRE-8360): line 1512: `ac' is an undefined primitive device.
    WARNING (SPECTRE-8360): line 1513: `ac' is an undefined primitive device.
    WARNING (SPECTRE-8360): line 1514: `ac' is an undefined primitive device.
    WARNING (SPECTRE-8360): line 1515: `ac' is an undefined primitive device.
        Further occurrences of this warning will be suppressed.

Reading file:  /opt/tools/cadence/installs/SPECTRE241/tools.lnx86/spectre/etc/configs/spectre.cfg
Reading file:  /opt/pdk/ams/410/spectre/c35/soac/soac.scs
Reading file:  /opt/pdk/ams/410/spectre/c35/soac/processOption.scs
Reading file:  /opt/pdk/ams/410/spectre/c35/soac/process.scs
Reading file:  /opt/pdk/ams/410/spectre/c35/soac/soac.va

Warning from spectre during AHDL read-in.
    WARNING (VACOMP-2435): The environment variable CDS_AHDLCMI_ENABLE is no longer supported. Therefore, the simulator will use the default compiled C code flow.

Reading link:  /opt/tools/cadence/installs/SPECTRE241/tools.lnx86/spectre/etc/ahdl/constants.h
Reading file:  /opt/tools/cadence/installs/SPECTRE241/tools.lnx86/spectre/etc/ahdl/constants.vams
Reading link:  /opt/tools/cadence/installs/SPECTRE241/tools.lnx86/spectre/etc/ahdl/discipline.h
Reading file:  /opt/tools/cadence/installs/SPECTRE241/tools.lnx86/spectre/etc/ahdl/disciplines.vams
Reading file:  /opt/pdk/ams/410/spectre/c35/processOption/C35B4C3.scs
Reading file:  /opt/pdk/ams/410/spectre/c35/soac/cmos53.scs
Reading file:  /opt/pdk/ams/410/spectre/c35/soac/res.scs
Reading file:  /opt/pdk/ams/410/spectre/c35/soac/cap.scs
Reading file:  /opt/pdk/ams/410/spectre/c35/soac/bip.scs
Reading file:  /opt/pdk/ams/410/spectre/c35/soac/ind.scs
Reading file:  /opt/pdk/ams/410/spectre/c35/soac/esddiode.scs
Time for NDB Parsing: CPU = 175.837 ms, elapsed = 350.357 ms.
Time accumulated: CPU = 382.52 ms, elapsed = 350.359 ms.
Peak resident memory used = 175 Mbytes.

Existing shared object for module modn_ahdl is up to date.
Installed compiled interface for modn_ahdl.
Existing shared object for module modp_ahdl is up to date.
Installed compiled interface for modp_ahdl.
Existing shared object for module cpoly_ahdl is up to date.
Installed compiled interface for cpoly_ahdl.
Existing shared object for module rpolyh_ahdl is up to date.
Installed compiled interface for rpolyh_ahdl.
Existing shared object for module bsource_19b458 is up to date.
Installed compiled interface for bsource_19b458.
Time for Elaboration: CPU = 43.879 ms, elapsed = 47.4479 ms.
Time accumulated: CPU = 426.553 ms, elapsed = 397.96 ms.
Peak resident memory used = 188 Mbytes.


Notice from spectre during hierarchy flattening.
    The value 'psf' specified for the 'checklimitdest' option will no longer be supported in future releases. Use 'spectre -h' to see other recommended values for the 'checklimitdest' option.


*****************************************************************************************
* 
* INFO: AMS_processOption = C35B4C3
* 
* INFO: Valid Modules  PIP VG5 HIRES
* 
*****************************************************************************************


Time for EDB Visiting: CPU = 7.525 ms, elapsed = 7.52497 ms.
Time accumulated: CPU = 434.203 ms, elapsed = 405.611 ms.
Peak resident memory used = 190 Mbytes.

Loading /opt/tools/cadence/installs/SPECTRE241/tools.lnx86/mdl/lib/64bit/libSpectreEH_sh.so ...

Warning from spectre during initial setup.
    WARNING (SPECTRE-16460): SOAC_cvarm_vspsub:Specified subcircuit master `cvarm' was not found.
    WARNING (SPECTRE-16462): SOAC_cvarm_vspsub:Error in specification of subcircuit master. Assert is ignored.
    WARNING (SPECTRE-16460): SOAC_cvarm_vbs:Specified subcircuit master `cvarm' was not found.
    WARNING (SPECTRE-16462): SOAC_cvarm_vbs:Error in specification of subcircuit master. Assert is ignored.
    WARNING (SPECTRE-16460): SOAC_cvarm_vgb:Specified subcircuit master `cvarm' was not found.
    WARNING (SPECTRE-16462): SOAC_cvarm_vgb:Error in specification of subcircuit master. Assert is ignored.
    WARNING (SPECTRE-16460): SOAC_cvart_vspsub:Specified subcircuit master `cvart' was not found.
    WARNING (SPECTRE-16462): SOAC_cvart_vspsub:Error in specification of subcircuit master. Assert is ignored.
    WARNING (SPECTRE-16460): SOAC_cvart_vbs:Specified subcircuit master `cvart' was not found.
        Further occurrences of this warning will be suppressed.
    WARNING (SPECTRE-16462): SOAC_cvart_vbs:Error in specification of subcircuit master. Assert is ignored.
        Further occurrences of this warning will be suppressed.
Notice from spectre during topology check.
    Only one connection to the following 43 nodes:
        I0.MN6.psub!
        I0.MN5.psub!
        I0.MN4.psub!
        I0.MN3.psub!
        I0.MN2.psub!
        Further occurrences of this notice will be suppressed.
Notice from spectre during initial setup.
    Multithreading is disabled due to the size of the design being too small.


Netlist title:
        // Point Netlist Generated on: Apr 16 09:02:17 2026


Global user options:
         psfversion = 1.4.0
            vabstol = 1e-06
            iabstol = 1e-12
               temp = 85
           homotopy = 5
              limit = delta
         compatible = spice2
               gmin = 1e-12
             rforce = 1
           maxnotes = 5
           maxwarns = 5
             digits = 5
               cols = 80
             pivrel = 0.001
           sensfile = ../psf/sens.output
     checklimitdest = psf
     enable_pre_ver = yes
      ignorezerovar = yes
               save = allpub
             reltol = 0.0001
               tnom = 27
             scalem = 1
              scale = 1

Scoped user options:

Circuit inventory:
              nodes 88
            bsim3v3 35    
     bsource_19b458 2     
          capacitor 38    
         cpoly_ahdl 17    
            isource 1     
          modn_ahdl 19    
          modp_ahdl 16    
           resistor 1     
        rpolyh_ahdl 2     
            vsource 8     

Analysis and control statement inventory:
                 dc 1     
               info 8     
               tran 1     

Output statements:
             .probe 0     
           .measure 0     
               save 0     

Design checks inventory:
          paramtest 55    
             assert 175   


Notice from spectre during initial setup.
    APS enabled.
    1 notice suppressed.
    72 warnings suppressed.

Time for parsing: CPU = 18.28 ms, elapsed = 631.084 ms.
Time accumulated: CPU = 452.598 ms, elapsed = 1.03681 s.
Peak resident memory used = 197 Mbytes.

~~~~~~~~~~~~~~~~~~~~~~
Pre-Simulation Summary
~~~~~~~~~~~~~~~~~~~~~~
   -   (APS) Multi-threading. The recommended number of threads is 1, consider adding +mt=1 on command line.
~~~~~~~~~~~~~~~~~~~~~~

******************
DC Analysis `dcOp'
******************

Notice from spectre during DC analysis `dcOp'.
    No checklimit analysis defined for asserts. A default checklimit analysis 'SpectreChecklimitAnal' has been created with all asserts enabled.


Opening the PSF file ../psf/dcOp.dc ...
Important parameter values:
    reltol = 100e-06
    abstol(V) = 1 uV
    abstol(I) = 1 pA
    temp = 85 C
    tnom = 27 C
    tempeffects = all
    gmindc = 1 pS
    rabsshort = 1 mOhm

Notice from spectre during DC analysis `dcOp'.
    Bad pivoting is found during DC analysis. Option dc_pivot_check=yes is recommended for possible improvement of convergence.
SOAC: I0.I1.MP0.soac_m1       modp V(D,S): LEAVING@  0us ;
SOAC: I0.I1.MP0.soac_m1       modp V(D,B): LEAVING@  0us ;
SOAC: I0.I2.MP0.soac_m1       modp V(D,S): LEAVING@  0us ;
SOAC: I0.I2.MP0.soac_m1       modp V(D,B): LEAVING@  0us ;
SOAC: I0.I3.MP0.soac_m1       modp V(D,S): LEAVING@  0us ;
SOAC: I0.I3.MP0.soac_m1       modp V(D,B): LEAVING@  0us ;
SOAC: I0.I5.MP0.soac_m1       modp V(D,S): LEAVING@  0us ;
SOAC: I0.I5.MP0.soac_m1       modp V(D,B): LEAVING@  0us ;

Maximum value achieved for any signal of each quantity: 
V: V(net2) = 3.63 V
I: I(V0:p) = 6.464 uA
Maximum value of each quantity, excluding Verilog-A modules or dangling current sources:
V: V(vout_filt) = 1.6 V
I: I(V0:p) = 6.464 uA

Warning from spectre during check, during DC analysis `dcOp'.
    WARNING (CMI-2943): Parameter checks have been ignored because the valid value for parameter 'trise' could not be found in 'C1'.
    WARNING (CMI-2943): Parameter checks have been ignored because the valid value for parameter 'trise' could not be found in 'I0.R2.CM'.
    WARNING (CMI-2943): Parameter checks have been ignored because the valid value for parameter 'trise' could not be found in 'I0.R2.CS1'.
    WARNING (CMI-2943): Parameter checks have been ignored because the valid value for parameter 'trise' could not be found in 'I0.R2.CS0'.
    WARNING (CMI-2943): Parameter checks have been ignored because the valid value for parameter 'trise' could not be found in 'I0.C3.C1'.
        Further occurrences of this warning will be suppressed.

Convergence achieved in 18 iterations.

Opening the PSF file ../psf/dcOpViolations.violations ...
DC simulation time: CPU = 88.942 ms, elapsed = 95.3081 ms.
Total time required for dc analysis `dcOp': CPU = 89.085 ms, elapsed = 95.439 ms, util. = 93.3%.
Time accumulated: CPU = 565.163 ms, elapsed = 1.15647 s.
Peak resident memory used = 205 Mbytes.


Notice from spectre.
    12 warnings suppressed.

dcOpInfo: writing operating point information to rawfile.

Opening the PSF file ../psf/dcOpInfo.info ...

************************************************
Transient Analysis `tran': time = (0 s -> 40 ms)
************************************************

Notice from spectre during IC analysis, during transient analysis `tran'.
    Bad pivoting is found during DC analysis. Option dc_pivot_check=yes is recommended for possible improvement of convergence.
Warning from spectre during check, during IC analysis, during transient analysis `tran'.
    WARNING (CMI-2943): Parameter checks have been ignored because the valid value for parameter 'trise' could not be found in 'C1'.
    WARNING (CMI-2943): Parameter checks have been ignored because the valid value for parameter 'trise' could not be found in 'I0.R2.CM'.
    WARNING (CMI-2943): Parameter checks have been ignored because the valid value for parameter 'trise' could not be found in 'I0.R2.CS1'.
    WARNING (CMI-2943): Parameter checks have been ignored because the valid value for parameter 'trise' could not be found in 'I0.R2.CS0'.
    WARNING (CMI-2943): Parameter checks have been ignored because the valid value for parameter 'trise' could not be found in 'I0.C3.C1'.
        Further occurrences of this warning will be suppressed.

Convergence achieved in 2 iterations.
DC simulation time: CPU = 842 us, elapsed = 842.094 us.

Opening the PSF file ../psf/tran.tran.tran ...
Important parameter values:
    start = 0 s
    outputstart = 0 s
    stop = 40 ms
    step = 40 us
    maxstep = 400 us
    ic = all
    useprevic = no
    skipdc = no
    reltol = 10e-06
    abstol(V) = 1 uV
    abstol(I) = 1 pA
    temp = 85 C
    tnom = 27 C
    tempeffects = all
    errpreset = conservative
    method = gear2only
    lteratio = 10
    relref = alllocal
    cmin = 0 F
    gmin = 1 pS
    rabsshort = 1 mOhm


Notice from spectre during transient analysis `tran'.
    Multithreading is disabled due to the size of the design being too small.


Output and IC/nodeset summary:
                 save   8       (current)
                 save   87      (voltage)

SOAC: I0.I1.MP0.soac_m1       modp V(D,S): LEAVING@  0us ;
SOAC: I0.I1.MP0.soac_m1       modp V(D,B): LEAVING@  0us ;
SOAC: I0.I2.MP0.soac_m1       modp V(D,S): LEAVING@  0us ;
SOAC: I0.I2.MP0.soac_m1       modp V(D,B): LEAVING@  0us ;
SOAC: I0.I3.MP0.soac_m1       modp V(D,S): LEAVING@  0us ;
SOAC: I0.I3.MP0.soac_m1       modp V(D,B): LEAVING@  0us ;
SOAC: I0.I5.MP0.soac_m1       modp V(D,S): LEAVING@  0us ;
SOAC: I0.I5.MP0.soac_m1       modp V(D,B): LEAVING@  0us ;
    tran: time = 1.019 ms    (2.55 %), step = 48.59 us     (121 m%)
    tran: time = 3.033 ms    (7.58 %), step = 47.52 us     (119 m%)
    tran: time = 5.047 ms    (12.6 %), step = 46.68 us     (117 m%)
    tran: time = 7.013 ms    (17.5 %), step = 49.12 us     (123 m%)
    tran: time = 9.027 ms    (22.6 %), step = 47.96 us     (120 m%)
    tran: time = 11.04 ms    (27.6 %), step = 47.03 us     (118 m%)
    tran: time = 13.01 ms    (32.5 %), step = 49.71 us     (124 m%)
    tran: time = 15.02 ms    (37.6 %), step = 48.44 us     (121 m%)
    tran: time = 17.03 ms    (42.6 %), step = 47.4 us      (119 m%)
    tran: time = 19 ms       (47.5 %), step = 50 us        (125 m%)
    tran: time = 21.02 ms    (52.5 %), step = 48.96 us     (122 m%)
    tran: time = 23.03 ms    (57.6 %), step = 47.82 us     (120 m%)
    tran: time = 25.04 ms    (62.6 %), step = 46.92 us     (117 m%)
    tran: time = 27.01 ms    (67.5 %), step = 49.52 us     (124 m%)
    tran: time = 29.02 ms    (72.6 %), step = 48.29 us     (121 m%)
    tran: time = 31.04 ms    (77.6 %), step = 47.28 us     (118 m%)
    tran: time = 33 ms       (82.5 %), step = 50 us        (125 m%)
    tran: time = 35.02 ms    (87.5 %), step = 48.8 us      (122 m%)
    tran: time = 37.03 ms    (92.6 %), step = 47.68 us     (119 m%)
    tran: time = 39.04 ms    (97.6 %), step = 46.81 us     (117 m%)
Number of accepted tran steps =             851

Maximum value achieved for any signal of each quantity: 
V: V(net2) = 3.63 V
I: I(V0:p) = 6.464 uA
Maximum value of each quantity, excluding Verilog-A modules or dangling current sources:
V: V(vout_filt) = 1.614 V
I: I(V0:p) = 6.464 uA

~~~~~~~~~~~~~~~~~~~~~~~~~~~~~~~~~
Post-Transient Simulation Summary
~~~~~~~~~~~~~~~~~~~~~~~~~~~~~~~~~
   -   To further speed up simulation, consider
          add ++aps on command line
   -   Non-default settings that could significantly slow down simulation
          errpreset = conservative, default moderate
          reltol = 10e-06, default 100e-06 (conservative)
~~~~~~~~~~~~~~~~~~~~~~~~~~~~~~~~~


During simulation, the CPU load for active processors is :
         0 (19.5 %)      1 (100.0 %)     2 (9.3 %)       3 (100.0 %)
         4 (7.7 %)       5 (35.7 %)      6 (5.2 %)       7 (7.6 %)
         8 (5.9 %)       9 (4.5 %)      10 (3.2 %)      11 (100.0 %)
        12 (22.4 %)     13 (36.4 %)     14 (40.6 %)     15 (13.6 %)
        16 (19.7 %)     17 (7.7 %)      18 (7.7 %)      19 (100.0 %)
        20 (7.1 %)      21 (9.7 %)      22 (12.9 %)     23 (13.3 %)
        24 (48.7 %)     25 (3.9 %)      26 (15.0 %)     27 (100.0 %)
        28 (3.9 %)      29 (9.2 %)      30 (51.3 %)     31 (28.8 %)
        32 (9.1 %)      33 (7.7 %)      34 (5.8 %)      35 (6.5 %)
        36 (56.1 %)     37 (7.1 %)      38 (33.8 %)     39 (100.0 %)
        40 (3.9 %)      41 (3.2 %)      42 (5.8 %)      43 (3.9 %)
        44 (5.7 %)      45 (51.9 %)     46 (1.3 %)      47 (4.4 %)
        Total: 1257.0%
Initial condition solution time: CPU = 875 us, elapsed = 877.142 us.
Intrinsic tran analysis time:    CPU = 465.436 ms, elapsed = 466.803 ms.

Opening the PSF file ../psf/tranViolations.violations ...
Total time required for tran analysis `tran': CPU = 471.716 ms, elapsed = 476.52 ms, util. = 99%.
Time accumulated: CPU = 1.04489 s, elapsed = 1.64423 s.
Peak resident memory used = 208 Mbytes.


Notice from spectre.
    12 warnings suppressed.

finalTimeOP: writing operating point information to rawfile.

Opening the PSF file ../psf/finalTimeOP.info ...
modelParameter: writing model parameter values to rawfile.

Opening the PSF file ../psf/modelParameter.info ...
element: writing instance parameter values to rawfile.

Opening the PSF file ../psf/element.info ...
outputParameter: writing output parameter values to rawfile.

Opening the PSF file ../psf/outputParameter.info ...
designParamVals: writing netlist parameters to rawfile.

Opening the PSFASCII file ../psf/designParamVals.info ...
primitives: writing primitives to rawfile.

Opening the PSFASCII file ../psf/primitives.info.primitives ...
subckts: writing subcircuits to rawfile.

Opening the PSFASCII file ../psf/subckts.info.subckts ...
Licensing Information:
Lic Summary:
[09:02:19.454586] Cdslmd servers:3000@lic08.ug.kth.se:29000@lic06.ug.kth.se
[09:02:19.978915] Feature usage summary:
[09:02:19.978915] Virtuoso_Multi_mode_Simulation


Aggregate audit (9:02:19 AM, Thur Apr 16, 2026):
Time used: CPU = 1.08 s, elapsed = 1.69 s, util. = 63.9%.
Time spent in licensing: elapsed = 51.5 ms.
Peak memory used = 209 Mbytes.
Simulation started at: 9:02:18 AM, Thur Apr 16, 2026, ended at: 9:02:19 AM, Thur Apr 16, 2026, with elapsed time (wall clock): 1.69 s.
spectre completes with 0 errors, 27 warnings, and 12 notices.


********* LOG ENDS **************
**                             **
