
Spectre (R) Circuit Simulator
Version 24.1.0.288.isr5 64bit -- 3 Apr 2025
Copyright (C) 1989-2025 Cadence Design Systems, Inc. All rights reserved worldwide. Cadence and Spectre are registered trademarks of Cadence Design Systems, Inc. All others are the property of their respective holders.

Includes RSA BSAFE(R) Cryptographic or Security Protocol Software from RSA Security, Inc.

User: davidevi   Host: il2244vt26_davidevi   HostID: 11AC2C00   PID: 1050957
Memory  available: 3.0420 TB  physical: 3.2467 TB
Linux   : Rocky Linux release 8.10 (Green Obsidian)
CPU Type: Intel(R) Xeon(R) CPU E7-8857 v2 @ 3.00GHz
        Socket: Processors [Frequency]
        0:       0 [2999.9],  1 [1200.0],  2 [1200.0],  3 [2999.9],  4 [2500.0]
                 5 [2400.0],  6 [2400.0],  7 [2500.0],  8 [1200.0],  9 [1200.0]
                10 [1200.0], 11 [2999.9]
        1:      12 [3399.9], 13 [1200.0], 14 [1200.0], 15 [1200.0], 16 [1200.0]
                17 [1200.0], 18 [3399.9], 19 [2400.0], 20 [1200.0], 21 [3399.9]
                22 [3399.9], 23 [1200.0]
        2:      24 [2999.9], 25 [1200.0], 26 [1500.0], 27 [1200.0], 28 [1200.0]
                29 [1200.0], 30 [1200.0], 31 [2999.9], 32 [2900.0], 33 [2999.9]
                34 [1200.0], 35 [1200.0]
        3:      36 [2600.0], 37 [1200.0], 38 [2600.0], 39 [2999.9], 40 [2999.9]
                41 [1200.0], 42 [1200.0], 43 [2999.9], 44 [3600.0], 45 [3600.0]
                46 [1200.0], 47 [1200.0]
        
System load averages (1min, 5min, 15min) : 25.0 %, 20.2 %, 17.2 %
HPC is enabled


Simulating `input.scs' on il2244vt26_davidevi at 9:08:29 AM, Thur Apr 16, 2026 (process id: 1050957).
Current working directory: /home/davidevi/Desktop/myproject/Sim/VGA/VGA_1_tb/adexl/results/data/MonteCarlo.3/11/Linerity_MC/groupRunDataDir/netlist
Command line:
    /opt/tools/cadence/installs/SPECTRE241/tools/bin/spectre -64  \
        input.scs +escchars +log ../psf/spectre.out -format psfbin  \
        +rtsf -raw ../psf +aps +mt +lqtimeout 900 -maxw 5 -maxn 5  \
        +param /opt/pdk/ams/410/spectre/ams_range.lmts -env ade  \
        -ahdllibdir  \
        /home/davidevi/Desktop/myproject/Sim/VGA/VGA_1_tb/adexl/results/data/MonteCarlo.3/sharedData/Job473/ahdl/input.ahdlSimDB  \
        +logstatus  \
        +adespetkn=0001089D13A302B663E41FB550AF0DF415A679A322D5069144BF588C12F604E07EF416DC01A319B562BB63D347F101B845A377F247CA45A752FD65BA56D04F9271C079D15D9175FF34986BDD0AF002BA50FD7FD707E002A700AC1C8618F746EA0EAB79D128F874D3349879D118F874D334981031BFF4D3DF5D7800003686

Simulation Id: uknFhFfe1tuiY3EX
Licensing Information:
[09:08:29.121826] Configured Lic search path (24.01-s002): 3000@lic08.ug.kth.se:29000@lic06.ug.kth.se

Licensing Information:
[09:08:29.202473] Periodic Lic check successful

Loading /opt/tools/cadence/installs/SPECTRE241/tools.lnx86/cmi/lib/64bit/5.0/libinfineon_sh.so ...
Loading /opt/tools/cadence/installs/SPECTRE241/tools.lnx86/cmi/lib/64bit/5.0/libphilips_I_sh.so ...
Loading /opt/tools/cadence/installs/SPECTRE241/tools.lnx86/cmi/lib/64bit/5.0/libphilips_sh.so ...
Loading /opt/tools/cadence/installs/SPECTRE241/tools.lnx86/cmi/lib/64bit/5.0/libsparam_sh.so ...
Loading /opt/tools/cadence/installs/SPECTRE241/tools.lnx86/cmi/lib/64bit/5.0/libstmodels_sh.so ...

Warning from spectre.
    WARNING (SPECTRE-691): This CPU processor does not support x86 advanced vector extensions instructions. This may affect math operations and slow down the simulation.

Reading file:  /home/davidevi/Desktop/myproject/Sim/VGA/VGA_1_tb/adexl/results/data/MonteCarlo.3/11/Linerity_MC/groupRunDataDir/netlist/input.scs
Reading file:  /opt/pdk/ams/410/spectre/ams_range.lmts

Warning from spectre during read of parameter soft limits file `/opt/pdk/ams/410/spectre/ams_range.lmts', during circuit read-in.
    WARNING (SPECTRE-8360): line 1511: `ac' is an undefined primitive device.
    WARNING (SPECTRE-8360): line 1512: `ac' is an undefined primitive device.
    WARNING (SPECTRE-8360): line 1513: `ac' is an undefined primitive device.
    WARNING (SPECTRE-8360): line 1514: `ac' is an undefined primitive device.
    WARNING (SPECTRE-8360): line 1515: `ac' is an undefined primitive device.
        Further occurrences of this warning will be suppressed.

Reading file:  /opt/tools/cadence/installs/SPECTRE241/tools.lnx86/spectre/etc/configs/spectre.cfg
Reading file:  /opt/pdk/ams/410/spectre/c35/soac/soac.scs
Reading file:  /opt/pdk/ams/410/spectre/c35/soac/processOption.scs
Reading file:  /opt/pdk/ams/410/spectre/c35/soac/process.scs
Reading file:  /opt/pdk/ams/410/spectre/c35/soac/soac.va

Warning from spectre during AHDL read-in.
    WARNING (VACOMP-2435): The environment variable CDS_AHDLCMI_ENABLE is no longer supported. Therefore, the simulator will use the default compiled C code flow.

Reading link:  /opt/tools/cadence/installs/SPECTRE241/tools.lnx86/spectre/etc/ahdl/constants.h
Reading file:  /opt/tools/cadence/installs/SPECTRE241/tools.lnx86/spectre/etc/ahdl/constants.vams
Reading link:  /opt/tools/cadence/installs/SPECTRE241/tools.lnx86/spectre/etc/ahdl/discipline.h
Reading file:  /opt/tools/cadence/installs/SPECTRE241/tools.lnx86/spectre/etc/ahdl/disciplines.vams
Reading file:  /opt/pdk/ams/410/spectre/c35/processOption/C35B4C3.scs
Reading file:  /opt/pdk/ams/410/spectre/c35/soac/cmos53.scs
Reading file:  /opt/pdk/ams/410/spectre/c35/soac/res.scs
Reading file:  /opt/pdk/ams/410/spectre/c35/soac/cap.scs
Reading file:  /opt/pdk/ams/410/spectre/c35/soac/bip.scs
Reading file:  /opt/pdk/ams/410/spectre/c35/soac/ind.scs
Reading file:  /opt/pdk/ams/410/spectre/c35/soac/esddiode.scs
Time for NDB Parsing: CPU = 172.369 ms, elapsed = 331.297 ms.
Time accumulated: CPU = 376.419 ms, elapsed = 331.3 ms.
Peak resident memory used = 175 Mbytes.

Existing shared object for module modn_ahdl is up to date.
Installed compiled interface for modn_ahdl.
Existing shared object for module modp_ahdl is up to date.
Installed compiled interface for modp_ahdl.
Existing shared object for module cpoly_ahdl is up to date.
Installed compiled interface for cpoly_ahdl.
Existing shared object for module rpolyh_ahdl is up to date.
Installed compiled interface for rpolyh_ahdl.
Existing shared object for module bsource_19b458 is up to date.
Installed compiled interface for bsource_19b458.
Time for Elaboration: CPU = 58.845 ms, elapsed = 60.4601 ms.
Time accumulated: CPU = 435.417 ms, elapsed = 391.912 ms.
Peak resident memory used = 188 Mbytes.


Notice from spectre during hierarchy flattening.
    The value 'psf' specified for the 'checklimitdest' option will no longer be supported in future releases. Use 'spectre -h' to see other recommended values for the 'checklimitdest' option.


*****************************************************************************************
* 
* INFO: AMS_processOption = C35B4C3
* 
* INFO: Valid Modules  PIP VG5 HIRES
* 
*****************************************************************************************


Time for EDB Visiting: CPU = 8.807 ms, elapsed = 8.80694 ms.
Time accumulated: CPU = 444.411 ms, elapsed = 400.905 ms.
Peak resident memory used = 191 Mbytes.

Loading /opt/tools/cadence/installs/SPECTRE241/tools.lnx86/mdl/lib/64bit/libSpectreEH_sh.so ...

Warning from spectre during initial setup.
    WARNING (SPECTRE-16460): SOAC_cvarm_vspsub:Specified subcircuit master `cvarm' was not found.
    WARNING (SPECTRE-16462): SOAC_cvarm_vspsub:Error in specification of subcircuit master. Assert is ignored.
    WARNING (SPECTRE-16460): SOAC_cvarm_vbs:Specified subcircuit master `cvarm' was not found.
    WARNING (SPECTRE-16462): SOAC_cvarm_vbs:Error in specification of subcircuit master. Assert is ignored.
    WARNING (SPECTRE-16460): SOAC_cvarm_vgb:Specified subcircuit master `cvarm' was not found.
    WARNING (SPECTRE-16462): SOAC_cvarm_vgb:Error in specification of subcircuit master. Assert is ignored.
    WARNING (SPECTRE-16460): SOAC_cvart_vspsub:Specified subcircuit master `cvart' was not found.
    WARNING (SPECTRE-16462): SOAC_cvart_vspsub:Error in specification of subcircuit master. Assert is ignored.
    WARNING (SPECTRE-16460): SOAC_cvart_vbs:Specified subcircuit master `cvart' was not found.
        Further occurrences of this warning will be suppressed.
    WARNING (SPECTRE-16462): SOAC_cvart_vbs:Error in specification of subcircuit master. Assert is ignored.
        Further occurrences of this warning will be suppressed.
Notice from spectre during topology check.
    Only one connection to the following 54 nodes:
        I0.MN6.psub!
        I0.MN5.psub!
        I0.MN4.psub!
        I0.MN3.psub!
        I0.MN2.psub!
        Further occurrences of this notice will be suppressed.
Notice from spectre during initial setup.
    Multithreading is disabled due to the size of the design being too small.


Netlist title:
        // Point Netlist Generated on: Apr 16 09:08:29 2026


Global user options:
         psfversion = 1.4.0
            vabstol = 1e-06
            iabstol = 1e-12
               temp = 85
           homotopy = 5
              limit = delta
         compatible = spice2
               gmin = 1e-12
             rforce = 1
           maxnotes = 5
           maxwarns = 5
             digits = 5
               cols = 80
             pivrel = 0.001
           sensfile = ../psf/sens.output
     checklimitdest = psf
     enable_pre_ver = yes
      ignorezerovar = yes
               save = allpub
             reltol = 0.0001
               tnom = 27
             scalem = 1
              scale = 1

Scoped user options:

Circuit inventory:
              nodes 88
            bsim3v3 35    
     bsource_19b458 2     
          capacitor 38    
         cpoly_ahdl 17    
            isource 1     
          modn_ahdl 19    
          modp_ahdl 16    
           resistor 1     
        rpolyh_ahdl 2     
            vsource 8     

Analysis and control statement inventory:
                 dc 1     
               info 8     
         montecarlo 1     
               tran 1     

Output statements:
             .probe 0     
           .measure 0     
               save 0     

Design checks inventory:
          paramtest 55    
             assert 175   


Notice from spectre during initial setup.
    APS enabled.
    1 notice suppressed.
    72 warnings suppressed.

Time for parsing: CPU = 18.61 ms, elapsed = 637.268 ms.
Time accumulated: CPU = 463.126 ms, elapsed = 1.03828 s.
Peak resident memory used = 198 Mbytes.

~~~~~~~~~~~~~~~~~~~~~~
Pre-Simulation Summary
~~~~~~~~~~~~~~~~~~~~~~
   -   (APS) Multi-threading. The recommended number of threads is 1, consider adding +mt=1 on command line.
~~~~~~~~~~~~~~~~~~~~~~

*************************************************
Monte Carlo Analysis `mc1': iteration = (1 -> 50)
*************************************************
Important parameter values:
    seed = 12345
    sampling = lds
    variations = all
    firstrun = 1
    numruns = 50
    nullmfactorcorrelation = no
    donominal = yes
    method = standard

**** Performing nominal run for `mc1'

******************
DC Analysis `dcOp'
******************

Notice from spectre during DC analysis `dcOp', during Monte Carlo analysis `mc1'.
    No checklimit analysis defined for asserts. A default checklimit analysis 'SpectreChecklimitAnal' has been created with all asserts enabled.


Opening the PSF file ../psf/nom/dcOp.dc ...
Important parameter values:
    reltol = 100e-06
    abstol(V) = 1 uV
    abstol(I) = 1 pA
    temp = 85 C
    tnom = 27 C
    tempeffects = all
    gmindc = 1 pS
    rabsshort = 1 mOhm

Notice from spectre during DC analysis `dcOp', during Monte Carlo analysis `mc1'.
    Bad pivoting is found during DC analysis. Option dc_pivot_check=yes is recommended for possible improvement of convergence.


Maximum value achieved for any signal of each quantity: 
V: V(S<0>) = 3.3 V
I: I(V0:p) = 6.442 uA
Maximum value of each quantity, excluding Verilog-A modules or dangling current sources:
V: V(net1) = 1.6 V
I: I(V0:p) = 6.442 uA

Warning from spectre during check, during DC analysis `dcOp', during Monte Carlo analysis `mc1'.
    WARNING (CMI-2943): Parameter checks have been ignored because the valid value for parameter 'trise' could not be found in 'C1'.
    WARNING (CMI-2943): Parameter checks have been ignored because the valid value for parameter 'trise' could not be found in 'I0.R2.CM'.
    WARNING (CMI-2943): Parameter checks have been ignored because the valid value for parameter 'trise' could not be found in 'I0.R2.CS1'.
    WARNING (CMI-2943): Parameter checks have been ignored because the valid value for parameter 'trise' could not be found in 'I0.R2.CS0'.
    WARNING (CMI-2943): Parameter checks have been ignored because the valid value for parameter 'trise' could not be found in 'I0.C8<3>.C1'.
        Further occurrences of this warning will be suppressed.

Convergence achieved in 21 iterations.
DC simulation time: CPU = 87.778 ms, elapsed = 92.0279 ms.
Total time required for dc analysis `dcOp': CPU = 87.885 ms, elapsed = 92.133 ms, util. = 95.4%.
Time accumulated: CPU = 575.613 ms, elapsed = 1.1561 s.
Peak resident memory used = 206 Mbytes.


Notice from spectre during Monte Carlo analysis `mc1'.
    34 warnings suppressed.

dcOpInfo: writing operating point information to rawfile.

Opening the PSF file ../psf/nom/dcOpInfo.info ...

************************************************
Transient Analysis `tran': time = (0 s -> 40 ms)
************************************************

Notice from spectre during IC analysis, during transient analysis `tran', during Monte Carlo analysis `mc1'.
    Bad pivoting is found during DC analysis. Option dc_pivot_check=yes is recommended for possible improvement of convergence.
Warning from spectre during check, during IC analysis, during transient analysis `tran', during Monte Carlo analysis `mc1'.
    WARNING (CMI-2943): Parameter checks have been ignored because the valid value for parameter 'trise' could not be found in 'C1'.
    WARNING (CMI-2943): Parameter checks have been ignored because the valid value for parameter 'trise' could not be found in 'I0.R2.CM'.
    WARNING (CMI-2943): Parameter checks have been ignored because the valid value for parameter 'trise' could not be found in 'I0.R2.CS1'.
    WARNING (CMI-2943): Parameter checks have been ignored because the valid value for parameter 'trise' could not be found in 'I0.R2.CS0'.
    WARNING (CMI-2943): Parameter checks have been ignored because the valid value for parameter 'trise' could not be found in 'I0.C8<3>.C1'.
        Further occurrences of this warning will be suppressed.

Convergence achieved in 2 iterations.
DC simulation time: CPU = 1.11 ms, elapsed = 1.11008 ms.

Opening the PSF file ../psf/nom/tran.tran.tran ...
Important parameter values:
    start = 0 s
    outputstart = 0 s
    stop = 40 ms
    step = 40 us
    maxstep = 400 us
    ic = all
    useprevic = no
    skipdc = no
    reltol = 10e-06
    abstol(V) = 1 uV
    abstol(I) = 1 pA
    temp = 85 C
    tnom = 27 C
    tempeffects = all
    errpreset = conservative
    method = gear2only
    lteratio = 10
    relref = alllocal
    cmin = 0 F
    gmin = 1 pS
    rabsshort = 1 mOhm


Notice from spectre during transient analysis `tran', during Monte Carlo analysis `mc1'.
    Multithreading is disabled due to the size of the design being too small.


Output and IC/nodeset summary:
                 save   8       (current)
                 save   87      (voltage)

    tran: time = 1.018 ms    (2.54 %), step = 48.7 us      (122 m%)
    tran: time = 3.032 ms    (7.58 %), step = 47.61 us     (119 m%)
    tran: time = 5.045 ms    (12.6 %), step = 46.77 us     (117 m%)
    tran: time = 7.012 ms    (17.5 %), step = 49.29 us     (123 m%)
    tran: time = 9.025 ms    (22.6 %), step = 48.11 us     (120 m%)
    tran: time = 11.04 ms    (27.6 %), step = 47.15 us     (118 m%)
    tran: time = 13.01 ms    (32.5 %), step = 49.95 us     (125 m%)
    tran: time = 15.02 ms    (37.5 %), step = 48.66 us     (122 m%)
    tran: time = 17.03 ms    (42.6 %), step = 47.58 us     (119 m%)
    tran: time = 19.05 ms    (47.6 %), step = 46.75 us     (117 m%)
    tran: time = 21.01 ms    (52.5 %), step = 49.25 us     (123 m%)
    tran: time = 23.03 ms    (57.6 %), step = 48.08 us     (120 m%)
    tran: time = 25.04 ms    (62.6 %), step = 47.13 us     (118 m%)
    tran: time = 27.01 ms    (67.5 %), step = 49.91 us     (125 m%)
    tran: time = 29.02 ms    (72.5 %), step = 48.63 us     (122 m%)
    tran: time = 31.03 ms    (77.6 %), step = 47.56 us     (119 m%)
    tran: time = 33.05 ms    (82.6 %), step = 46.73 us     (117 m%)
    tran: time = 35.01 ms    (87.5 %), step = 49.22 us     (123 m%)
    tran: time = 37.03 ms    (92.6 %), step = 48.05 us     (120 m%)
    tran: time = 39.04 ms    (97.6 %), step = 47.11 us     (118 m%)
Number of accepted tran steps =             852

Maximum value achieved for any signal of each quantity: 
V: V(S<0>) = 3.3 V
I: I(V0:p) = 6.443 uA
Maximum value of each quantity, excluding Verilog-A modules or dangling current sources:
V: V(vout_filt) = 1.614 V
I: I(V0:p) = 6.443 uA

~~~~~~~~~~~~~~~~~~~~~~~~~~~~~~~~~
Post-Transient Simulation Summary
~~~~~~~~~~~~~~~~~~~~~~~~~~~~~~~~~
   -   To further speed up simulation, consider
          add ++aps on command line
   -   Non-default settings that could significantly slow down simulation
          errpreset = conservative, default moderate
          reltol = 10e-06, default 100e-06 (conservative)
~~~~~~~~~~~~~~~~~~~~~~~~~~~~~~~~~


During simulation, the CPU load for active processors is :
         0 (84.8 %)      1 (18.4 %)      2 (6.3 %)       3 (52.2 %)
         4 (4.3 %)       5 (5.0 %)       6 (2.5 %)       7 (3.7 %)
         8 (4.4 %)       9 (4.4 %)      10 (6.9 %)      11 (100.0 %)
        12 (99.4 %)     13 (4.3 %)      14 (2.5 %)      15 (1.9 %)
        16 (6.2 %)      17 (5.0 %)      18 (100.0 %)    19 (9.9 %)
        20 (72.0 %)     21 (91.3 %)     22 (26.5 %)     23 (1.9 %)
        24 (46.0 %)     25 (58.3 %)     26 (21.5 %)     27 (11.3 %)
        28 (8.2 %)      29 (13.5 %)     30 (18.2 %)     31 (100.0 %)
        32 (1.9 %)      33 (6.2 %)      34 (7.4 %)      35 (6.8 %)
        36 (4.3 %)      37 (3.8 %)      38 (3.8 %)      39 (100.0 %)
        40 (24.1 %)     41 (5.0 %)      42 (4.4 %)      43 (56.6 %)
        44 (39.5 %)     45 (6.3 %)      46 (20.1 %)     47 (2.5 %)
        Total: 1283.4%
Initial condition solution time: CPU = 1.181 ms, elapsed = 1.18208 ms.
Intrinsic tran analysis time:    CPU = 515.537 ms, elapsed = 517.286 ms.
Total time required for tran analysis `tran': CPU = 519.004 ms, elapsed = 521.441 ms, util. = 99.5%.
Time accumulated: CPU = 1.10347 s, elapsed = 1.68994 s.
Peak resident memory used = 209 Mbytes.


Notice from spectre during transient analysis `tran', during Monte Carlo analysis `mc1'.
    34 warnings suppressed.

finalTimeOP: writing operating point information to rawfile.

Opening the PSF file ../psf/nom/finalTimeOP.info ...
modelParameter: writing model parameter values to rawfile.

Opening the PSF file ../psf/nom/modelParameter.info ...
element: writing instance parameter values to rawfile.

Opening the PSF file ../psf/nom/element.info ...
outputParameter: writing output parameter values to rawfile.

Opening the PSF file ../psf/nom/outputParameter.info ...
designParamVals: writing netlist parameters to rawfile.

Opening the PSFASCII file ../psf/nom/designParamVals.info ...
primitives: writing primitives to rawfile.

Opening the PSFASCII file ../psf/nom/primitives.info.primitives ...
subckts: writing subcircuits to rawfile.

Opening the PSFASCII file ../psf/nom/subckts.info.subckts ...
Opening iteration number and data-directory mapping file:  /home/davidevi/Desktop/myproject/Sim/VGA/VGA_1_tb/adexl/results/data/MonteCarlo.3/11/Linerity_MC/groupRunDataDir/netlist/../psf/mc1.mapping

Statistical parameters:
    Defined process parameters: 629
    Defined mismatch parameters (subckt based): 86
    Non-referenced mismatch parameters: 80
    Number of random variables: 718
    Gaussian truncation for process parameters: 4.00 sigma
    Gaussian truncation for mismatch parameters: 4.00 sigma


Opening the PSF file ../psf/mc1_dcOp.montecarlo ...

Opening the PSF file ../psf/mc1_dcOpInfo.montecarlo ...

Opening the PSF file ../psf/mc1_tran.montecarlo ...

Opening the PSF file ../psf/mc1_finalTimeOP.montecarlo ...

Opening the PSF file ../psf/mc1_modelParameter.montecarlo ...

Opening the PSF file ../psf/mc1_element.montecarlo ...

Opening the PSF file ../psf/mc1_outputParameter.montecarlo ...

Opening the PSF file ../psf/mc1_designParamVals.montecarlo ...

Opening the PSF file ../psf/mc1_primitives.montecarlo ...

Opening the PSF file ../psf/mc1_subckts.montecarlo ...

**** Performing monte carlo loop for `mc1'

1   0.00% 

*****************************************************************************************
* 
* INFO: AMS_processOption = C35B4C3
* 
* INFO: Valid Modules  PIP VG5 HIRES
* 
*****************************************************************************************


******************
DC Analysis `dcOp'
******************

Opening the PSF file ../psf/mc1_separate/001/dcOp.dc ...
Important parameter values:
    reltol = 100e-06
    abstol(V) = 1 uV
    abstol(I) = 1 pA
    temp = 85 C
    tnom = 27 C
    tempeffects = all
    gmindc = 1 pS
    rabsshort = 1 mOhm

Notice from spectre at iteration = 1 during DC analysis `dcOp', during Monte Carlo analysis `mc1'.
    Bad pivoting is found during DC analysis. Option dc_pivot_check=yes is recommended for possible improvement of convergence.


Maximum value achieved for any signal of each quantity: 
V: V(S<0>) = 3.3 V
I: I(V0:p) = 6.252 uA
Maximum value of each quantity, excluding Verilog-A modules or dangling current sources:
V: V(vout_filt) = 1.6 V
I: I(V0:p) = 6.252 uA

Warning from spectre at iteration = 1 during check, during DC analysis `dcOp', during Monte Carlo analysis `mc1'.
    WARNING (CMI-2943): Parameter checks have been ignored because the valid value for parameter 'trise' could not be found in 'C1'.
    WARNING (CMI-2943): Parameter checks have been ignored because the valid value for parameter 'trise' could not be found in 'I0.R2.CM'.
    WARNING (CMI-2943): Parameter checks have been ignored because the valid value for parameter 'trise' could not be found in 'I0.R2.CS1'.
    WARNING (CMI-2943): Parameter checks have been ignored because the valid value for parameter 'trise' could not be found in 'I0.R2.CS0'.
    WARNING (CMI-2943): Parameter checks have been ignored because the valid value for parameter 'trise' could not be found in 'I0.C8<3>.C1'.
        Further occurrences of this warning will be suppressed.

Convergence achieved in 22 iterations.
DC simulation time: CPU = 6.178 ms, elapsed = 7.64203 ms.
Total time required for dc analysis `dcOp': CPU = 6.677 ms, elapsed = 8.13794 ms, util. = 82%.
Time accumulated: CPU = 1.18887 s, elapsed = 1.79509 s.
Peak resident memory used = 212 Mbytes.


Notice from spectre at iteration = 1 during Monte Carlo analysis `mc1'.
    34 warnings suppressed.

dcOpInfo: writing operating point information to rawfile.

Opening the PSF file ../psf/mc1_separate/001/dcOpInfo.info ...

************************************************
Transient Analysis `tran': time = (0 s -> 40 ms)
************************************************

Opening the PSF file ../psf/mc1_separate/001/tran.tran.tran ...

Notice from spectre at iteration = 1 during IC analysis, during transient analysis `tran', during Monte Carlo analysis `mc1'.
    Bad pivoting is found during DC analysis. Option dc_pivot_check=yes is recommended for possible improvement of convergence.
Warning from spectre at iteration = 1 during check, during IC analysis, during transient analysis `tran', during Monte Carlo analysis `mc1'.
    WARNING (CMI-2943): Parameter checks have been ignored because the valid value for parameter 'trise' could not be found in 'C1'.
    WARNING (CMI-2943): Parameter checks have been ignored because the valid value for parameter 'trise' could not be found in 'I0.R2.CM'.
    WARNING (CMI-2943): Parameter checks have been ignored because the valid value for parameter 'trise' could not be found in 'I0.R2.CS1'.
    WARNING (CMI-2943): Parameter checks have been ignored because the valid value for parameter 'trise' could not be found in 'I0.R2.CS0'.
    WARNING (CMI-2943): Parameter checks have been ignored because the valid value for parameter 'trise' could not be found in 'I0.C8<3>.C1'.
        Further occurrences of this warning will be suppressed.

Convergence achieved in 22 iterations.
DC simulation time: CPU = 3.176 ms, elapsed = 3.17693 ms.
Important parameter values:
    start = 0 s
    outputstart = 0 s
    stop = 40 ms
    step = 40 us
    maxstep = 400 us
    ic = all
    useprevic = no
    skipdc = no
    reltol = 10e-06
    abstol(V) = 1 uV
    abstol(I) = 1 pA
    temp = 85 C
    tnom = 27 C
    tempeffects = all
    errpreset = conservative
    method = gear2only
    lteratio = 10
    relref = alllocal
    cmin = 0 F
    gmin = 1 pS
    rabsshort = 1 mOhm


Notice from spectre at iteration = 1 during transient analysis `tran', during Monte Carlo analysis `mc1'.
    Multithreading is disabled due to the size of the design being too small.


Output and IC/nodeset summary:
                 save   8       (current)
                 save   87      (voltage)

    tran: time = 1.017 ms    (2.54 %), step = 48.75 us     (122 m%)
    tran: time = 3.031 ms    (7.58 %), step = 47.65 us     (119 m%)
    tran: time = 5.044 ms    (12.6 %), step = 46.8 us      (117 m%)
    tran: time = 7.011 ms    (17.5 %), step = 49.34 us     (123 m%)
    tran: time = 9.024 ms    (22.6 %), step = 48.15 us     (120 m%)
    tran: time = 11.04 ms    (27.6 %), step = 47.18 us     (118 m%)
    tran: time = 13.01 ms    (32.5 %), step = 50 us        (125 m%)
    tran: time = 15.02 ms    (37.5 %), step = 48.69 us     (122 m%)
    tran: time = 17.03 ms    (42.6 %), step = 47.61 us     (119 m%)
    tran: time = 19.05 ms    (47.6 %), step = 46.77 us     (117 m%)
    tran: time = 21.01 ms    (52.5 %), step = 49.27 us     (123 m%)
    tran: time = 23.03 ms    (57.6 %), step = 48.1 us      (120 m%)
    tran: time = 25.04 ms    (62.6 %), step = 47.14 us     (118 m%)
    tran: time = 27.01 ms    (67.5 %), step = 49.93 us     (125 m%)
    tran: time = 29.02 ms    (72.5 %), step = 48.64 us     (122 m%)
    tran: time = 31.03 ms    (77.6 %), step = 47.56 us     (119 m%)
    tran: time = 33.05 ms    (82.6 %), step = 46.73 us     (117 m%)
    tran: time = 35.01 ms    (87.5 %), step = 49.22 us     (123 m%)
    tran: time = 37.03 ms    (92.6 %), step = 48.05 us     (120 m%)
    tran: time = 39.04 ms    (97.6 %), step = 47.11 us     (118 m%)
Number of accepted tran steps =             852

Maximum value achieved for any signal of each quantity: 
V: V(S<0>) = 3.3 V
I: I(V0:p) = 6.252 uA
Maximum value of each quantity, excluding Verilog-A modules or dangling current sources:
V: V(vout_filt) = 1.614 V
I: I(V0:p) = 6.252 uA

~~~~~~~~~~~~~~~~~~~~~~~~~~~~~~~~~
Post-Transient Simulation Summary
~~~~~~~~~~~~~~~~~~~~~~~~~~~~~~~~~
   -   To further speed up simulation, consider
          add ++aps on command line
   -   Non-default settings that could significantly slow down simulation
          errpreset = conservative, default moderate
          reltol = 10e-06, default 100e-06 (conservative)
~~~~~~~~~~~~~~~~~~~~~~~~~~~~~~~~~


During simulation, the CPU load for active processors is :
         0 (87.7 %)      1 (19.2 %)      2 (6.3 %)       3 (38.7 %)
         4 (3.6 %)       5 (4.9 %)       6 (2.7 %)       7 (4.0 %)
         8 (4.1 %)       9 (4.5 %)      10 (5.9 %)      11 (100.0 %)
        12 (99.6 %)     13 (3.6 %)      14 (4.5 %)      15 (4.0 %)
        16 (5.0 %)      17 (4.0 %)      18 (100.0 %)    19 (7.6 %)
        20 (77.6 %)     21 (91.6 %)     22 (20.8 %)     23 (1.4 %)
        24 (35.7 %)     25 (53.8 %)     26 (32.4 %)     27 (11.7 %)
        28 (30.4 %)     29 (10.2 %)     30 (13.1 %)     31 (100.0 %)
        32 (2.3 %)      33 (6.6 %)      34 (6.2 %)      35 (4.9 %)
        36 (18.3 %)     37 (3.6 %)      38 (2.7 %)      39 (100.0 %)
        40 (17.8 %)     41 (5.0 %)      42 (3.6 %)      43 (42.1 %)
        44 (29.3 %)     45 (5.5 %)      46 (30.5 %)     47 (5.0 %)
        Total: 1271.6%
Initial condition solution time: CPU = 3.207 ms, elapsed = 3.20888 ms.
Intrinsic tran analysis time:    CPU = 512.807 ms, elapsed = 514.849 ms.
Total time required for tran analysis `tran': CPU = 517.758 ms, elapsed = 520.426 ms, util. = 99.5%.
Time accumulated: CPU = 1.71351 s, elapsed = 2.32517 s.
Peak resident memory used = 213 Mbytes.


Notice from spectre during transient analysis `tran', during Monte Carlo analysis `mc1'.
    34 warnings suppressed.

finalTimeOP: writing operating point information to rawfile.

Opening the PSF file ../psf/mc1_separate/001/finalTimeOP.info ...
modelParameter: writing model parameter values to rawfile.

Opening the PSF file ../psf/mc1_separate/001/modelParameter.info ...
element: writing instance parameter values to rawfile.

Opening the PSF file ../psf/mc1_separate/001/element.info ...
outputParameter: writing output parameter values to rawfile.

Opening the PSF file ../psf/mc1_separate/001/outputParameter.info ...
designParamVals: writing netlist parameters to rawfile.

Opening the PSFASCII file ../psf/mc1_separate/001/designParamVals.info ...
primitives: writing primitives to rawfile.

Opening the PSFASCII file ../psf/mc1_separate/001/primitives.info.primitives ...
subckts: writing subcircuits to rawfile.

Opening the PSFASCII file ../psf/mc1_separate/001/subckts.info.subckts ...
2   2.04% 

*****************************************************************************************
* 
* INFO: AMS_processOption = C35B4C3
* 
* INFO: Valid Modules  PIP VG5 HIRES
* 
*****************************************************************************************


******************
DC Analysis `dcOp'
******************

Opening the PSF file ../psf/mc1_separate/002/dcOp.dc ...
Important parameter values:
    reltol = 100e-06
    abstol(V) = 1 uV
    abstol(I) = 1 pA
    temp = 85 C
    tnom = 27 C
    tempeffects = all
    gmindc = 1 pS
    rabsshort = 1 mOhm

Notice from spectre during DC analysis `dcOp', during Monte Carlo analysis `mc1'.
    Bad pivoting is found during DC analysis. Option dc_pivot_check=yes is recommended for possible improvement of convergence.


Maximum value achieved for any signal of each quantity: 
V: V(S<0>) = 3.3 V
I: I(V0:p) = 6.464 uA
Maximum value of each quantity, excluding Verilog-A modules or dangling current sources:
V: V(vout_filt) = 1.6 V
I: I(V0:p) = 6.464 uA

Warning from spectre during check, during DC analysis `dcOp', during Monte Carlo analysis `mc1'.
    WARNING (CMI-2943): Parameter checks have been ignored because the valid value for parameter 'trise' could not be found in 'C1'.
    WARNING (CMI-2943): Parameter checks have been ignored because the valid value for parameter 'trise' could not be found in 'I0.R2.CM'.
    WARNING (CMI-2943): Parameter checks have been ignored because the valid value for parameter 'trise' could not be found in 'I0.R2.CS1'.
    WARNING (CMI-2943): Parameter checks have been ignored because the valid value for parameter 'trise' could not be found in 'I0.R2.CS0'.
    WARNING (CMI-2943): Parameter checks have been ignored because the valid value for parameter 'trise' could not be found in 'I0.C8<3>.C1'.
        Further occurrences of this warning will be suppressed.

Convergence achieved in 21 iterations.
DC simulation time: CPU = 5.631 ms, elapsed = 7.08818 ms.
Total time required for dc analysis `dcOp': CPU = 6.069 ms, elapsed = 7.52401 ms, util. = 80.7%.
Time accumulated: CPU = 1.7575 s, elapsed = 2.38116 s.
Peak resident memory used = 213 Mbytes.


Notice from spectre during Monte Carlo analysis `mc1'.
    34 warnings suppressed.

dcOpInfo: writing operating point information to rawfile.

Opening the PSF file ../psf/mc1_separate/002/dcOpInfo.info ...

************************************************
Transient Analysis `tran': time = (0 s -> 40 ms)
************************************************

Opening the PSF file ../psf/mc1_separate/002/tran.tran.tran ...

Notice from spectre during IC analysis, during transient analysis `tran', during Monte Carlo analysis `mc1'.
    Bad pivoting is found during DC analysis. Option dc_pivot_check=yes is recommended for possible improvement of convergence.
Warning from spectre during check, during IC analysis, during transient analysis `tran', during Monte Carlo analysis `mc1'.
    WARNING (CMI-2943): Parameter checks have been ignored because the valid value for parameter 'trise' could not be found in 'C1'.
    WARNING (CMI-2943): Parameter checks have been ignored because the valid value for parameter 'trise' could not be found in 'I0.R2.CM'.
    WARNING (CMI-2943): Parameter checks have been ignored because the valid value for parameter 'trise' could not be found in 'I0.R2.CS1'.
    WARNING (CMI-2943): Parameter checks have been ignored because the valid value for parameter 'trise' could not be found in 'I0.R2.CS0'.
    WARNING (CMI-2943): Parameter checks have been ignored because the valid value for parameter 'trise' could not be found in 'I0.C8<3>.C1'.
        Further occurrences of this warning will be suppressed.

Convergence achieved in 21 iterations.
DC simulation time: CPU = 3.092 ms, elapsed = 3.093 ms.
Important parameter values:
    start = 0 s
    outputstart = 0 s
    stop = 40 ms
    step = 40 us
    maxstep = 400 us
    ic = all
    useprevic = no
    skipdc = no
    reltol = 10e-06
    abstol(V) = 1 uV
    abstol(I) = 1 pA
    temp = 85 C
    tnom = 27 C
    tempeffects = all
    errpreset = conservative
    method = gear2only
    lteratio = 10
    relref = alllocal
    cmin = 0 F
    gmin = 1 pS
    rabsshort = 1 mOhm


Notice from spectre during transient analysis `tran', during Monte Carlo analysis `mc1'.
    Multithreading is disabled due to the size of the design being too small.


Output and IC/nodeset summary:
                 save   8       (current)
                 save   87      (voltage)

    tran: time = 1.018 ms    (2.55 %), step = 48.67 us     (122 m%)
    tran: time = 3.032 ms    (7.58 %), step = 47.59 us     (119 m%)
    tran: time = 5.045 ms    (12.6 %), step = 46.75 us     (117 m%)
    tran: time = 7.012 ms    (17.5 %), step = 49.25 us     (123 m%)
    tran: time = 9.025 ms    (22.6 %), step = 48.08 us     (120 m%)
    tran: time = 11.04 ms    (27.6 %), step = 47.13 us     (118 m%)
    tran: time = 13.01 ms    (32.5 %), step = 49.91 us     (125 m%)
    tran: time = 15.02 ms    (37.5 %), step = 48.62 us     (122 m%)
    tran: time = 17.03 ms    (42.6 %), step = 47.55 us     (119 m%)
    tran: time = 19.05 ms    (47.6 %), step = 46.72 us     (117 m%)
    tran: time = 21.01 ms    (52.5 %), step = 49.21 us     (123 m%)
    tran: time = 23.03 ms    (57.6 %), step = 48.04 us     (120 m%)
    tran: time = 25.04 ms    (62.6 %), step = 47.1 us      (118 m%)
    tran: time = 27.01 ms    (67.5 %), step = 49.86 us     (125 m%)
    tran: time = 29.02 ms    (72.5 %), step = 48.58 us     (121 m%)
    tran: time = 31.03 ms    (77.6 %), step = 47.52 us     (119 m%)
    tran: time = 33.05 ms    (82.6 %), step = 46.7 us      (117 m%)
    tran: time = 35.01 ms    (87.5 %), step = 49.16 us     (123 m%)
    tran: time = 37.03 ms    (92.6 %), step = 48.01 us     (120 m%)
    tran: time = 39.04 ms    (97.6 %), step = 47.07 us     (118 m%)
Number of accepted tran steps =             852

Maximum value achieved for any signal of each quantity: 
V: V(S<0>) = 3.3 V
I: I(V0:p) = 6.464 uA
Maximum value of each quantity, excluding Verilog-A modules or dangling current sources:
V: V(vout_filt) = 1.614 V
I: I(V0:p) = 6.464 uA

~~~~~~~~~~~~~~~~~~~~~~~~~~~~~~~~~
Post-Transient Simulation Summary
~~~~~~~~~~~~~~~~~~~~~~~~~~~~~~~~~
   -   To further speed up simulation, consider
          add ++aps on command line
   -   Non-default settings that could significantly slow down simulation
          errpreset = conservative, default moderate
          reltol = 10e-06, default 100e-06 (conservative)
~~~~~~~~~~~~~~~~~~~~~~~~~~~~~~~~~


During simulation, the CPU load for active processors is :
         0 (89.5 %)      1 (20.1 %)      2 (6.8 %)       3 (31.3 %)
         4 (3.2 %)       5 (4.3 %)       6 (2.5 %)       7 (4.2 %)
         8 (3.2 %)       9 (4.0 %)      10 (5.4 %)      11 (100.0 %)
        12 (97.9 %)     13 (3.2 %)      14 (3.9 %)      15 (3.6 %)
        16 (4.3 %)      17 (3.2 %)      18 (100.0 %)    19 (7.8 %)
        20 (81.4 %)     21 (81.6 %)     22 (27.9 %)     23 (1.1 %)
        24 (28.4 %)     25 (43.0 %)     26 (46.3 %)     27 (13.2 %)
        28 (43.3 %)     29 (9.9 %)      30 (11.1 %)     31 (100.0 %)
        32 (2.1 %)      33 (5.6 %)      34 (7.1 %)      35 (4.6 %)
        36 (24.8 %)     37 (3.2 %)      38 (2.5 %)      39 (100.0 %)
        40 (14.9 %)     41 (3.9 %)      42 (2.9 %)      43 (34.1 %)
        44 (24.7 %)     45 (4.7 %)      46 (37.6 %)     47 (5.0 %)
        Total: 1263.1%
Initial condition solution time: CPU = 3.123 ms, elapsed = 3.12495 ms.
Intrinsic tran analysis time:    CPU = 514.099 ms, elapsed = 515.595 ms.
Total time required for tran analysis `tran': CPU = 519.09 ms, elapsed = 521.207 ms, util. = 99.6%.
Time accumulated: CPU = 2.28348 s, elapsed = 2.91187 s.
Peak resident memory used = 214 Mbytes.


Notice from spectre during transient analysis `tran', during Monte Carlo analysis `mc1'.
    34 warnings suppressed.

finalTimeOP: writing operating point information to rawfile.

Opening the PSF file ../psf/mc1_separate/002/finalTimeOP.info ...
modelParameter: writing model parameter values to rawfile.

Opening the PSF file ../psf/mc1_separate/002/modelParameter.info ...
element: writing instance parameter values to rawfile.

Opening the PSF file ../psf/mc1_separate/002/element.info ...
outputParameter: writing output parameter values to rawfile.

Opening the PSF file ../psf/mc1_separate/002/outputParameter.info ...
designParamVals: writing netlist parameters to rawfile.

Opening the PSFASCII file ../psf/mc1_separate/002/designParamVals.info ...
primitives: writing primitives to rawfile.

Opening the PSFASCII file ../psf/mc1_separate/002/primitives.info.primitives ...
subckts: writing subcircuits to rawfile.

Opening the PSFASCII file ../psf/mc1_separate/002/subckts.info.subckts ...
3   4.08% 

*****************************************************************************************
* 
* INFO: AMS_processOption = C35B4C3
* 
* INFO: Valid Modules  PIP VG5 HIRES
* 
*****************************************************************************************


******************
DC Analysis `dcOp'
******************

Opening the PSF file ../psf/mc1_separate/003/dcOp.dc ...
Important parameter values:
    reltol = 100e-06
    abstol(V) = 1 uV
    abstol(I) = 1 pA
    temp = 85 C
    tnom = 27 C
    tempeffects = all
    gmindc = 1 pS
    rabsshort = 1 mOhm

Notice from spectre during DC analysis `dcOp', during Monte Carlo analysis `mc1'.
    Bad pivoting is found during DC analysis. Option dc_pivot_check=yes is recommended for possible improvement of convergence.


Maximum value achieved for any signal of each quantity: 
V: V(S<0>) = 3.3 V
I: I(V0:p) = 6.375 uA
Maximum value of each quantity, excluding Verilog-A modules or dangling current sources:
V: V(vout_filt) = 1.6 V
I: I(V0:p) = 6.375 uA

Warning from spectre during check, during DC analysis `dcOp', during Monte Carlo analysis `mc1'.
    WARNING (CMI-2943): Parameter checks have been ignored because the valid value for parameter 'trise' could not be found in 'C1'.
    WARNING (CMI-2943): Parameter checks have been ignored because the valid value for parameter 'trise' could not be found in 'I0.R2.CM'.
    WARNING (CMI-2943): Parameter checks have been ignored because the valid value for parameter 'trise' could not be found in 'I0.R2.CS1'.
    WARNING (CMI-2943): Parameter checks have been ignored because the valid value for parameter 'trise' could not be found in 'I0.R2.CS0'.
    WARNING (CMI-2943): Parameter checks have been ignored because the valid value for parameter 'trise' could not be found in 'I0.C8<3>.C1'.
        Further occurrences of this warning will be suppressed.

Convergence achieved in 22 iterations.
DC simulation time: CPU = 6.2 ms, elapsed = 7.3781 ms.
Total time required for dc analysis `dcOp': CPU = 6.775 ms, elapsed = 7.95007 ms, util. = 85.2%.
Time accumulated: CPU = 2.32953 s, elapsed = 2.97019 s.
Peak resident memory used = 214 Mbytes.


Notice from spectre during Monte Carlo analysis `mc1'.
    34 warnings suppressed.

dcOpInfo: writing operating point information to rawfile.

Opening the PSF file ../psf/mc1_separate/003/dcOpInfo.info ...

************************************************
Transient Analysis `tran': time = (0 s -> 40 ms)
************************************************

Opening the PSF file ../psf/mc1_separate/003/tran.tran.tran ...

Notice from spectre during IC analysis, during transient analysis `tran', during Monte Carlo analysis `mc1'.
    Bad pivoting is found during DC analysis. Option dc_pivot_check=yes is recommended for possible improvement of convergence.
Warning from spectre during check, during IC analysis, during transient analysis `tran', during Monte Carlo analysis `mc1'.
    WARNING (CMI-2943): Parameter checks have been ignored because the valid value for parameter 'trise' could not be found in 'C1'.
    WARNING (CMI-2943): Parameter checks have been ignored because the valid value for parameter 'trise' could not be found in 'I0.R2.CM'.
    WARNING (CMI-2943): Parameter checks have been ignored because the valid value for parameter 'trise' could not be found in 'I0.R2.CS1'.
    WARNING (CMI-2943): Parameter checks have been ignored because the valid value for parameter 'trise' could not be found in 'I0.R2.CS0'.
    WARNING (CMI-2943): Parameter checks have been ignored because the valid value for parameter 'trise' could not be found in 'I0.C8<3>.C1'.
        Further occurrences of this warning will be suppressed.

Convergence achieved in 22 iterations.
DC simulation time: CPU = 3.218 ms, elapsed = 3.21984 ms.
Important parameter values:
    start = 0 s
    outputstart = 0 s
    stop = 40 ms
    step = 40 us
    maxstep = 400 us
    ic = all
    useprevic = no
    skipdc = no
    reltol = 10e-06
    abstol(V) = 1 uV
    abstol(I) = 1 pA
    temp = 85 C
    tnom = 27 C
    tempeffects = all
    errpreset = conservative
    method = gear2only
    lteratio = 10
    relref = alllocal
    cmin = 0 F
    gmin = 1 pS
    rabsshort = 1 mOhm


Notice from spectre during transient analysis `tran', during Monte Carlo analysis `mc1'.
    Multithreading is disabled due to the size of the design being too small.


Output and IC/nodeset summary:
                 save   8       (current)
                 save   87      (voltage)

    tran: time = 1.018 ms    (2.54 %), step = 48.73 us     (122 m%)
    tran: time = 3.031 ms    (7.58 %), step = 47.64 us     (119 m%)
    tran: time = 5.044 ms    (12.6 %), step = 46.79 us     (117 m%)
    tran: time = 7.011 ms    (17.5 %), step = 49.33 us     (123 m%)
    tran: time = 9.024 ms    (22.6 %), step = 48.15 us     (120 m%)
    tran: time = 11.04 ms    (27.6 %), step = 47.19 us     (118 m%)
    tran: time = 13 ms       (32.5 %), step = 50 us        (125 m%)
    tran: time = 15.02 ms    (37.5 %), step = 48.71 us     (122 m%)
    tran: time = 17.03 ms    (42.6 %), step = 47.63 us     (119 m%)
    tran: time = 19.04 ms    (47.6 %), step = 46.78 us     (117 m%)
    tran: time = 21.01 ms    (52.5 %), step = 49.31 us     (123 m%)
    tran: time = 23.02 ms    (57.6 %), step = 48.14 us     (120 m%)
    tran: time = 25.04 ms    (62.6 %), step = 47.18 us     (118 m%)
    tran: time = 27 ms       (67.5 %), step = 49.99 us     (125 m%)
    tran: time = 29.02 ms    (72.5 %), step = 48.7 us      (122 m%)
    tran: time = 31.03 ms    (77.6 %), step = 47.61 us     (119 m%)
    tran: time = 33.04 ms    (82.6 %), step = 46.77 us     (117 m%)
    tran: time = 35.01 ms    (87.5 %), step = 49.3 us      (123 m%)
    tran: time = 37.02 ms    (92.6 %), step = 48.13 us     (120 m%)
    tran: time = 39.04 ms    (97.6 %), step = 47.17 us     (118 m%)
Number of accepted tran steps =             852

Maximum value achieved for any signal of each quantity: 
V: V(S<0>) = 3.3 V
I: I(V0:p) = 6.375 uA
Maximum value of each quantity, excluding Verilog-A modules or dangling current sources:
V: V(vout_filt) = 1.614 V
I: I(V0:p) = 6.375 uA

~~~~~~~~~~~~~~~~~~~~~~~~~~~~~~~~~
Post-Transient Simulation Summary
~~~~~~~~~~~~~~~~~~~~~~~~~~~~~~~~~
   -   To further speed up simulation, consider
          add ++aps on command line
   -   Non-default settings that could significantly slow down simulation
          errpreset = conservative, default moderate
          reltol = 10e-06, default 100e-06 (conservative)
~~~~~~~~~~~~~~~~~~~~~~~~~~~~~~~~~


During simulation, the CPU load for active processors is :
         0 (90.8 %)      1 (18.5 %)      2 (8.9 %)       3 (26.5 %)
         4 (4.5 %)       5 (5.3 %)       6 (2.4 %)       7 (3.8 %)
         8 (3.6 %)       9 (3.6 %)      10 (4.7 %)      11 (100.0 %)
        12 (98.3 %)     13 (2.9 %)      14 (3.8 %)      15 (3.5 %)
        16 (5.3 %)      17 (4.7 %)      18 (100.0 %)    19 (6.7 %)
        20 (83.8 %)     21 (68.0 %)     22 (40.4 %)     23 (1.5 %)
        24 (24.1 %)     25 (36.3 %)     26 (54.7 %)     27 (13.6 %)
        28 (50.1 %)     29 (23.6 %)     30 (11.3 %)     31 (100.0 %)
        32 (2.4 %)      33 (5.3 %)      34 (5.9 %)      35 (4.4 %)
        36 (20.6 %)     37 (2.7 %)      38 (2.7 %)      39 (100.0 %)
        40 (12.7 %)     41 (4.1 %)      42 (3.5 %)      43 (28.9 %)
        44 (21.3 %)     45 (5.0 %)      46 (47.6 %)     47 (4.5 %)
        Total: 1276.8%
Initial condition solution time: CPU = 3.25 ms, elapsed = 3.25298 ms.
Intrinsic tran analysis time:    CPU = 513.706 ms, elapsed = 515.214 ms.
Total time required for tran analysis `tran': CPU = 518.87 ms, elapsed = 521.752 ms, util. = 99.4%.
Time accumulated: CPU = 2.85608 s, elapsed = 3.50264 s.
Peak resident memory used = 214 Mbytes.


Notice from spectre during transient analysis `tran', during Monte Carlo analysis `mc1'.
    34 warnings suppressed.

finalTimeOP: writing operating point information to rawfile.

Opening the PSF file ../psf/mc1_separate/003/finalTimeOP.info ...
modelParameter: writing model parameter values to rawfile.

Opening the PSF file ../psf/mc1_separate/003/modelParameter.info ...
element: writing instance parameter values to rawfile.

Opening the PSF file ../psf/mc1_separate/003/element.info ...
outputParameter: writing output parameter values to rawfile.

Opening the PSF file ../psf/mc1_separate/003/outputParameter.info ...
designParamVals: writing netlist parameters to rawfile.

Opening the PSFASCII file ../psf/mc1_separate/003/designParamVals.info ...
primitives: writing primitives to rawfile.

Opening the PSFASCII file ../psf/mc1_separate/003/primitives.info.primitives ...
subckts: writing subcircuits to rawfile.

Opening the PSFASCII file ../psf/mc1_separate/003/subckts.info.subckts ...
    mc1: iteration = 3           (4.08 %), step = 1            (2.04 %)
4   6.12% 

*****************************************************************************************
* 
* INFO: AMS_processOption = C35B4C3
* 
* INFO: Valid Modules  PIP VG5 HIRES
* 
*****************************************************************************************


******************
DC Analysis `dcOp'
******************

Opening the PSF file ../psf/mc1_separate/004/dcOp.dc ...
Important parameter values:
    reltol = 100e-06
    abstol(V) = 1 uV
    abstol(I) = 1 pA
    temp = 85 C
    tnom = 27 C
    tempeffects = all
    gmindc = 1 pS
    rabsshort = 1 mOhm

Notice from spectre during DC analysis `dcOp', during Monte Carlo analysis `mc1'.
    Bad pivoting is found during DC analysis. Option dc_pivot_check=yes is recommended for possible improvement of convergence.


Maximum value achieved for any signal of each quantity: 
V: V(S<0>) = 3.3 V
I: I(V0:p) = 6.497 uA
Maximum value of each quantity, excluding Verilog-A modules or dangling current sources:
V: V(net1) = 1.6 V
I: I(V0:p) = 6.497 uA

Warning from spectre during check, during DC analysis `dcOp', during Monte Carlo analysis `mc1'.
    WARNING (CMI-2943): Parameter checks have been ignored because the valid value for parameter 'trise' could not be found in 'C1'.
    WARNING (CMI-2943): Parameter checks have been ignored because the valid value for parameter 'trise' could not be found in 'I0.R2.CM'.
    WARNING (CMI-2943): Parameter checks have been ignored because the valid value for parameter 'trise' could not be found in 'I0.R2.CS1'.
    WARNING (CMI-2943): Parameter checks have been ignored because the valid value for parameter 'trise' could not be found in 'I0.R2.CS0'.
    WARNING (CMI-2943): Parameter checks have been ignored because the valid value for parameter 'trise' could not be found in 'I0.C8<3>.C1'.
        Further occurrences of this warning will be suppressed.

Convergence achieved in 22 iterations.
DC simulation time: CPU = 5.758 ms, elapsed = 7.42197 ms.
Total time required for dc analysis `dcOp': CPU = 6.166 ms, elapsed = 7.82919 ms, util. = 78.8%.
Time accumulated: CPU = 2.9011 s, elapsed = 3.56072 s.
Peak resident memory used = 214 Mbytes.


Notice from spectre during Monte Carlo analysis `mc1'.
    34 warnings suppressed.

dcOpInfo: writing operating point information to rawfile.

Opening the PSF file ../psf/mc1_separate/004/dcOpInfo.info ...

************************************************
Transient Analysis `tran': time = (0 s -> 40 ms)
************************************************

Opening the PSF file ../psf/mc1_separate/004/tran.tran.tran ...

Notice from spectre during IC analysis, during transient analysis `tran', during Monte Carlo analysis `mc1'.
    Bad pivoting is found during DC analysis. Option dc_pivot_check=yes is recommended for possible improvement of convergence.
Warning from spectre during check, during IC analysis, during transient analysis `tran', during Monte Carlo analysis `mc1'.
    WARNING (CMI-2943): Parameter checks have been ignored because the valid value for parameter 'trise' could not be found in 'C1'.
    WARNING (CMI-2943): Parameter checks have been ignored because the valid value for parameter 'trise' could not be found in 'I0.R2.CM'.
    WARNING (CMI-2943): Parameter checks have been ignored because the valid value for parameter 'trise' could not be found in 'I0.R2.CS1'.
    WARNING (CMI-2943): Parameter checks have been ignored because the valid value for parameter 'trise' could not be found in 'I0.R2.CS0'.
    WARNING (CMI-2943): Parameter checks have been ignored because the valid value for parameter 'trise' could not be found in 'I0.C8<3>.C1'.
        Further occurrences of this warning will be suppressed.

Convergence achieved in 22 iterations.
DC simulation time: CPU = 3.159 ms, elapsed = 3.16 ms.
Important parameter values:
    start = 0 s
    outputstart = 0 s
    stop = 40 ms
    step = 40 us
    maxstep = 400 us
    ic = all
    useprevic = no
    skipdc = no
    reltol = 10e-06
    abstol(V) = 1 uV
    abstol(I) = 1 pA
    temp = 85 C
    tnom = 27 C
    tempeffects = all
    errpreset = conservative
    method = gear2only
    lteratio = 10
    relref = alllocal
    cmin = 0 F
    gmin = 1 pS
    rabsshort = 1 mOhm


Notice from spectre during transient analysis `tran', during Monte Carlo analysis `mc1'.
    Multithreading is disabled due to the size of the design being too small.


Output and IC/nodeset summary:
                 save   8       (current)
                 save   87      (voltage)

    tran: time = 1.018 ms    (2.54 %), step = 48.68 us     (122 m%)
    tran: time = 3.031 ms    (7.58 %), step = 47.62 us     (119 m%)
    tran: time = 5.044 ms    (12.6 %), step = 46.79 us     (117 m%)
    tran: time = 7.011 ms    (17.5 %), step = 49.36 us     (123 m%)
    tran: time = 9.024 ms    (22.6 %), step = 48.19 us     (120 m%)
    tran: time = 11.04 ms    (27.6 %), step = 47.23 us     (118 m%)
    tran: time = 13 ms       (32.5 %), step = 50 us        (125 m%)
    tran: time = 15.02 ms    (37.5 %), step = 48.83 us     (122 m%)
    tran: time = 17.03 ms    (42.6 %), step = 47.74 us     (119 m%)
    tran: time = 19.04 ms    (47.6 %), step = 46.88 us     (117 m%)
    tran: time = 21.01 ms    (52.5 %), step = 49.52 us     (124 m%)
    tran: time = 23.02 ms    (57.6 %), step = 48.33 us     (121 m%)
    tran: time = 25.04 ms    (62.6 %), step = 47.34 us     (118 m%)
    tran: time = 27 ms       (67.5 %), step = 50 us        (125 m%)
    tran: time = 29.01 ms    (72.5 %), step = 48.97 us     (122 m%)
    tran: time = 31.03 ms    (77.6 %), step = 47.86 us     (120 m%)
    tran: time = 33.04 ms    (82.6 %), step = 46.98 us     (117 m%)
    tran: time = 35.01 ms    (87.5 %), step = 49.69 us     (124 m%)
    tran: time = 37.02 ms    (92.6 %), step = 48.47 us     (121 m%)
    tran: time = 39.03 ms    (97.6 %), step = 47.45 us     (119 m%)
Number of accepted tran steps =             852

Maximum value achieved for any signal of each quantity: 
V: V(S<0>) = 3.3 V
I: I(V0:p) = 6.498 uA
Maximum value of each quantity, excluding Verilog-A modules or dangling current sources:
V: V(vout_filt) = 1.612 V
I: I(V0:p) = 6.498 uA

~~~~~~~~~~~~~~~~~~~~~~~~~~~~~~~~~
Post-Transient Simulation Summary
~~~~~~~~~~~~~~~~~~~~~~~~~~~~~~~~~
   -   To further speed up simulation, consider
          add ++aps on command line
   -   Non-default settings that could significantly slow down simulation
          errpreset = conservative, default moderate
          reltol = 10e-06, default 100e-06 (conservative)
~~~~~~~~~~~~~~~~~~~~~~~~~~~~~~~~~


During simulation, the CPU load for active processors is :
         0 (78.4 %)      1 (29.7 %)      2 (10.6 %)      3 (22.9 %)
         4 (5.6 %)       5 (4.8 %)       6 (2.3 %)       7 (3.7 %)
         8 (4.1 %)       9 (3.6 %)      10 (4.3 %)      11 (100.0 %)
        12 (98.5 %)     13 (2.8 %)      14 (3.8 %)      15 (3.5 %)
        16 (6.1 %)      17 (4.5 %)      18 (100.0 %)    19 (5.8 %)
        20 (85.9 %)     21 (58.5 %)     22 (48.2 %)     23 (1.8 %)
        24 (24.4 %)     25 (31.1 %)     26 (61.3 %)     27 (13.1 %)
        28 (57.1 %)     29 (20.2 %)     30 (12.2 %)     31 (100.0 %)
        32 (2.5 %)      33 (18.0 %)     34 (7.8 %)      35 (3.8 %)
        36 (18.3 %)     37 (3.3 %)      38 (4.1 %)      39 (100.0 %)
        40 (11.8 %)     41 (6.1 %)      42 (3.8 %)      43 (25.3 %)
        44 (19.0 %)     45 (4.6 %)      46 (55.0 %)     47 (5.1 %)
        Total: 1296.9%
Initial condition solution time: CPU = 3.192 ms, elapsed = 3.19386 ms.
Intrinsic tran analysis time:    CPU = 517.126 ms, elapsed = 518.989 ms.
Total time required for tran analysis `tran': CPU = 522.217 ms, elapsed = 524.762 ms, util. = 99.5%.
Time accumulated: CPU = 3.4303 s, elapsed = 4.09513 s.
Peak resident memory used = 214 Mbytes.


Notice from spectre during transient analysis `tran', during Monte Carlo analysis `mc1'.
    34 warnings suppressed.

finalTimeOP: writing operating point information to rawfile.

Opening the PSF file ../psf/mc1_separate/004/finalTimeOP.info ...
modelParameter: writing model parameter values to rawfile.

Opening the PSF file ../psf/mc1_separate/004/modelParameter.info ...
element: writing instance parameter values to rawfile.

Opening the PSF file ../psf/mc1_separate/004/element.info ...
outputParameter: writing output parameter values to rawfile.

Opening the PSF file ../psf/mc1_separate/004/outputParameter.info ...
designParamVals: writing netlist parameters to rawfile.

Opening the PSFASCII file ../psf/mc1_separate/004/designParamVals.info ...
primitives: writing primitives to rawfile.

Opening the PSFASCII file ../psf/mc1_separate/004/primitives.info.primitives ...
subckts: writing subcircuits to rawfile.

Opening the PSFASCII file ../psf/mc1_separate/004/subckts.info.subckts ...
    mc1: iteration = 4           (6.12 %), step = 1            (2.04 %)
5   8.16% 

*****************************************************************************************
* 
* INFO: AMS_processOption = C35B4C3
* 
* INFO: Valid Modules  PIP VG5 HIRES
* 
*****************************************************************************************


******************
DC Analysis `dcOp'
******************

Opening the PSF file ../psf/mc1_separate/005/dcOp.dc ...
Important parameter values:
    reltol = 100e-06
    abstol(V) = 1 uV
    abstol(I) = 1 pA
    temp = 85 C
    tnom = 27 C
    tempeffects = all
    gmindc = 1 pS
    rabsshort = 1 mOhm

Notice from spectre during DC analysis `dcOp', during Monte Carlo analysis `mc1'.
    Bad pivoting is found during DC analysis. Option dc_pivot_check=yes is recommended for possible improvement of convergence.


Maximum value achieved for any signal of each quantity: 
V: V(S<0>) = 3.3 V
I: I(V0:p) = 6.423 uA
Maximum value of each quantity, excluding Verilog-A modules or dangling current sources:
V: V(vout_filt) = 1.6 V
I: I(V0:p) = 6.423 uA

Warning from spectre during check, during DC analysis `dcOp', during Monte Carlo analysis `mc1'.
    WARNING (CMI-2943): Parameter checks have been ignored because the valid value for parameter 'trise' could not be found in 'C1'.
    WARNING (CMI-2943): Parameter checks have been ignored because the valid value for parameter 'trise' could not be found in 'I0.R2.CM'.
    WARNING (CMI-2943): Parameter checks have been ignored because the valid value for parameter 'trise' could not be found in 'I0.R2.CS1'.
    WARNING (CMI-2943): Parameter checks have been ignored because the valid value for parameter 'trise' could not be found in 'I0.R2.CS0'.
    WARNING (CMI-2943): Parameter checks have been ignored because the valid value for parameter 'trise' could not be found in 'I0.C8<3>.C1'.
        Further occurrences of this warning will be suppressed.

Convergence achieved in 23 iterations.
DC simulation time: CPU = 6.182 ms, elapsed = 7.56907 ms.
Total time required for dc analysis `dcOp': CPU = 6.635 ms, elapsed = 8.01992 ms, util. = 82.7%.
Time accumulated: CPU = 3.47892 s, elapsed = 4.15604 s.
Peak resident memory used = 214 Mbytes.


Notice from spectre during Monte Carlo analysis `mc1'.
    34 warnings suppressed.

dcOpInfo: writing operating point information to rawfile.

Opening the PSF file ../psf/mc1_separate/005/dcOpInfo.info ...

************************************************
Transient Analysis `tran': time = (0 s -> 40 ms)
************************************************

Opening the PSF file ../psf/mc1_separate/005/tran.tran.tran ...

Notice from spectre during IC analysis, during transient analysis `tran', during Monte Carlo analysis `mc1'.
    Bad pivoting is found during DC analysis. Option dc_pivot_check=yes is recommended for possible improvement of convergence.
Warning from spectre during check, during IC analysis, during transient analysis `tran', during Monte Carlo analysis `mc1'.
    WARNING (CMI-2943): Parameter checks have been ignored because the valid value for parameter 'trise' could not be found in 'C1'.
    WARNING (CMI-2943): Parameter checks have been ignored because the valid value for parameter 'trise' could not be found in 'I0.R2.CM'.
    WARNING (CMI-2943): Parameter checks have been ignored because the valid value for parameter 'trise' could not be found in 'I0.R2.CS1'.
    WARNING (CMI-2943): Parameter checks have been ignored because the valid value for parameter 'trise' could not be found in 'I0.R2.CS0'.
    WARNING (CMI-2943): Parameter checks have been ignored because the valid value for parameter 'trise' could not be found in 'I0.C8<3>.C1'.
        Further occurrences of this warning will be suppressed.

Convergence achieved in 23 iterations.
DC simulation time: CPU = 3.279 ms, elapsed = 3.27992 ms.
Important parameter values:
    start = 0 s
    outputstart = 0 s
    stop = 40 ms
    step = 40 us
    maxstep = 400 us
    ic = all
    useprevic = no
    skipdc = no
    reltol = 10e-06
    abstol(V) = 1 uV
    abstol(I) = 1 pA
    temp = 85 C
    tnom = 27 C
    tempeffects = all
    errpreset = conservative
    method = gear2only
    lteratio = 10
    relref = alllocal
    cmin = 0 F
    gmin = 1 pS
    rabsshort = 1 mOhm


Notice from spectre during transient analysis `tran', during Monte Carlo analysis `mc1'.
    Multithreading is disabled due to the size of the design being too small.


Output and IC/nodeset summary:
                 save   8       (current)
                 save   87      (voltage)

    tran: time = 1.018 ms    (2.54 %), step = 48.7 us      (122 m%)
    tran: time = 3.032 ms    (7.58 %), step = 47.61 us     (119 m%)
    tran: time = 5.045 ms    (12.6 %), step = 46.76 us     (117 m%)
    tran: time = 7.012 ms    (17.5 %), step = 49.26 us     (123 m%)
    tran: time = 9.025 ms    (22.6 %), step = 48.08 us     (120 m%)
    tran: time = 11.04 ms    (27.6 %), step = 47.13 us     (118 m%)
    tran: time = 13.01 ms    (32.5 %), step = 49.89 us     (125 m%)
    tran: time = 15.02 ms    (37.5 %), step = 48.6 us      (122 m%)
    tran: time = 17.03 ms    (42.6 %), step = 47.53 us     (119 m%)
    tran: time = 19.05 ms    (47.6 %), step = 46.7 us      (117 m%)
    tran: time = 21.01 ms    (52.5 %), step = 49.16 us     (123 m%)
    tran: time = 23.03 ms    (57.6 %), step = 48 us        (120 m%)
    tran: time = 25.04 ms    (62.6 %), step = 47.06 us     (118 m%)
    tran: time = 27.01 ms    (67.5 %), step = 49.78 us     (124 m%)
    tran: time = 29.02 ms    (72.6 %), step = 48.52 us     (121 m%)
    tran: time = 31.03 ms    (77.6 %), step = 47.46 us     (119 m%)
    tran: time = 33 ms       (82.5 %), step = 50 us        (125 m%)
    tran: time = 35.01 ms    (87.5 %), step = 49.07 us     (123 m%)
    tran: time = 37.03 ms    (92.6 %), step = 47.92 us     (120 m%)
    tran: time = 39.04 ms    (97.6 %), step = 47 us        (118 m%)
Number of accepted tran steps =             851

Maximum value achieved for any signal of each quantity: 
V: V(S<0>) = 3.3 V
I: I(V0:p) = 6.423 uA
Maximum value of each quantity, excluding Verilog-A modules or dangling current sources:
V: V(vout_filt) = 1.614 V
I: I(V0:p) = 6.423 uA

~~~~~~~~~~~~~~~~~~~~~~~~~~~~~~~~~
Post-Transient Simulation Summary
~~~~~~~~~~~~~~~~~~~~~~~~~~~~~~~~~
   -   To further speed up simulation, consider
          add ++aps on command line
   -   Non-default settings that could significantly slow down simulation
          errpreset = conservative, default moderate
          reltol = 10e-06, default 100e-06 (conservative)
~~~~~~~~~~~~~~~~~~~~~~~~~~~~~~~~~


During simulation, the CPU load for active processors is :
         0 (79.9 %)      1 (27.8 %)      2 (11.9 %)      3 (20.6 %)
         4 (5.5 %)       5 (4.6 %)       6 (2.2 %)       7 (3.7 %)
         8 (6.0 %)       9 (3.1 %)      10 (3.8 %)      11 (100.0 %)
        12 (98.7 %)     13 (2.8 %)      14 (3.7 %)      15 (4.4 %)
        16 (5.5 %)      17 (4.2 %)      18 (100.0 %)    19 (5.0 %)
        20 (75.8 %)     21 (62.7 %)     22 (53.4 %)     23 (2.2 %)
        24 (21.7 %)     25 (27.4 %)     26 (54.6 %)     27 (11.7 %)
        28 (62.0 %)     29 (17.7 %)     30 (11.0 %)     31 (100.0 %)
        32 (2.4 %)      33 (15.9 %)     34 (19.4 %)     35 (3.5 %)
        36 (16.4 %)     37 (3.3 %)      38 (16.4 %)     39 (100.0 %)
        40 (11.4 %)     41 (5.7 %)      42 (3.5 %)      43 (22.3 %)
        44 (17.2 %)     45 (4.6 %)      46 (60.3 %)     47 (6.0 %)
        Total: 1301.9%
Initial condition solution time: CPU = 3.315 ms, elapsed = 3.31688 ms.
Intrinsic tran analysis time:    CPU = 513.418 ms, elapsed = 514.972 ms.
Total time required for tran analysis `tran': CPU = 518.476 ms, elapsed = 520.604 ms, util. = 99.6%.
Time accumulated: CPU = 4.00414 s, elapsed = 4.68578 s.
Peak resident memory used = 214 Mbytes.


Notice from spectre during transient analysis `tran', during Monte Carlo analysis `mc1'.
    34 warnings suppressed.

finalTimeOP: writing operating point information to rawfile.

Opening the PSF file ../psf/mc1_separate/005/finalTimeOP.info ...
modelParameter: writing model parameter values to rawfile.

Opening the PSF file ../psf/mc1_separate/005/modelParameter.info ...
element: writing instance parameter values to rawfile.

Opening the PSF file ../psf/mc1_separate/005/element.info ...
outputParameter: writing output parameter values to rawfile.

Opening the PSF file ../psf/mc1_separate/005/outputParameter.info ...
designParamVals: writing netlist parameters to rawfile.

Opening the PSFASCII file ../psf/mc1_separate/005/designParamVals.info ...
primitives: writing primitives to rawfile.

Opening the PSFASCII file ../psf/mc1_separate/005/primitives.info.primitives ...
subckts: writing subcircuits to rawfile.

Opening the PSFASCII file ../psf/mc1_separate/005/subckts.info.subckts ...
    mc1: iteration = 5           (8.16 %), step = 1            (2.04 %)
6  10.20% 

*****************************************************************************************
* 
* INFO: AMS_processOption = C35B4C3
* 
* INFO: Valid Modules  PIP VG5 HIRES
* 
*****************************************************************************************


******************
DC Analysis `dcOp'
******************

Opening the PSF file ../psf/mc1_separate/006/dcOp.dc ...
Important parameter values:
    reltol = 100e-06
    abstol(V) = 1 uV
    abstol(I) = 1 pA
    temp = 85 C
    tnom = 27 C
    tempeffects = all
    gmindc = 1 pS
    rabsshort = 1 mOhm

Notice from spectre during DC analysis `dcOp', during Monte Carlo analysis `mc1'.
    Bad pivoting is found during DC analysis. Option dc_pivot_check=yes is recommended for possible improvement of convergence.


Maximum value achieved for any signal of each quantity: 
V: V(S<0>) = 3.3 V
I: I(V0:p) = 6.445 uA
Maximum value of each quantity, excluding Verilog-A modules or dangling current sources:
V: V(net1) = 1.6 V
I: I(V0:p) = 6.445 uA

Warning from spectre during check, during DC analysis `dcOp', during Monte Carlo analysis `mc1'.
    WARNING (CMI-2943): Parameter checks have been ignored because the valid value for parameter 'trise' could not be found in 'C1'.
    WARNING (CMI-2943): Parameter checks have been ignored because the valid value for parameter 'trise' could not be found in 'I0.R2.CM'.
    WARNING (CMI-2943): Parameter checks have been ignored because the valid value for parameter 'trise' could not be found in 'I0.R2.CS1'.
    WARNING (CMI-2943): Parameter checks have been ignored because the valid value for parameter 'trise' could not be found in 'I0.R2.CS0'.
    WARNING (CMI-2943): Parameter checks have been ignored because the valid value for parameter 'trise' could not be found in 'I0.C8<3>.C1'.
        Further occurrences of this warning will be suppressed.

Convergence achieved in 22 iterations.
DC simulation time: CPU = 5.695 ms, elapsed = 7.32708 ms.
Total time required for dc analysis `dcOp': CPU = 6.166 ms, elapsed = 7.79819 ms, util. = 79.1%.
Time accumulated: CPU = 4.04809 s, elapsed = 4.74205 s.
Peak resident memory used = 214 Mbytes.


Notice from spectre during Monte Carlo analysis `mc1'.
    34 warnings suppressed.

dcOpInfo: writing operating point information to rawfile.

Opening the PSF file ../psf/mc1_separate/006/dcOpInfo.info ...

************************************************
Transient Analysis `tran': time = (0 s -> 40 ms)
************************************************

Opening the PSF file ../psf/mc1_separate/006/tran.tran.tran ...

Notice from spectre during IC analysis, during transient analysis `tran', during Monte Carlo analysis `mc1'.
    Bad pivoting is found during DC analysis. Option dc_pivot_check=yes is recommended for possible improvement of convergence.
Warning from spectre during check, during IC analysis, during transient analysis `tran', during Monte Carlo analysis `mc1'.
    WARNING (CMI-2943): Parameter checks have been ignored because the valid value for parameter 'trise' could not be found in 'C1'.
    WARNING (CMI-2943): Parameter checks have been ignored because the valid value for parameter 'trise' could not be found in 'I0.R2.CM'.
    WARNING (CMI-2943): Parameter checks have been ignored because the valid value for parameter 'trise' could not be found in 'I0.R2.CS1'.
    WARNING (CMI-2943): Parameter checks have been ignored because the valid value for parameter 'trise' could not be found in 'I0.R2.CS0'.
    WARNING (CMI-2943): Parameter checks have been ignored because the valid value for parameter 'trise' could not be found in 'I0.C8<3>.C1'.
        Further occurrences of this warning will be suppressed.

Convergence achieved in 22 iterations.
DC simulation time: CPU = 3.132 ms, elapsed = 3.1321 ms.
Important parameter values:
    start = 0 s
    outputstart = 0 s
    stop = 40 ms
    step = 40 us
    maxstep = 400 us
    ic = all
    useprevic = no
    skipdc = no
    reltol = 10e-06
    abstol(V) = 1 uV
    abstol(I) = 1 pA
    temp = 85 C
    tnom = 27 C
    tempeffects = all
    errpreset = conservative
    method = gear2only
    lteratio = 10
    relref = alllocal
    cmin = 0 F
    gmin = 1 pS
    rabsshort = 1 mOhm


Notice from spectre during transient analysis `tran', during Monte Carlo analysis `mc1'.
    Multithreading is disabled due to the size of the design being too small.


Output and IC/nodeset summary:
                 save   8       (current)
                 save   87      (voltage)

    tran: time = 1.018 ms    (2.54 %), step = 48.68 us     (122 m%)
    tran: time = 3.031 ms    (7.58 %), step = 47.61 us     (119 m%)
    tran: time = 5.045 ms    (12.6 %), step = 46.78 us     (117 m%)
    tran: time = 7.011 ms    (17.5 %), step = 49.32 us     (123 m%)
    tran: time = 9.024 ms    (22.6 %), step = 48.16 us     (120 m%)
    tran: time = 11.04 ms    (27.6 %), step = 47.2 us      (118 m%)
    tran: time = 13 ms       (32.5 %), step = 50 us        (125 m%)
    tran: time = 15.02 ms    (37.5 %), step = 48.75 us     (122 m%)
    tran: time = 17.03 ms    (42.6 %), step = 47.67 us     (119 m%)
    tran: time = 19.04 ms    (47.6 %), step = 46.82 us     (117 m%)
    tran: time = 21.01 ms    (52.5 %), step = 49.4 us      (124 m%)
    tran: time = 23.02 ms    (57.6 %), step = 48.22 us     (121 m%)
    tran: time = 25.04 ms    (62.6 %), step = 47.25 us     (118 m%)
    tran: time = 27 ms       (67.5 %), step = 50 us        (125 m%)
    tran: time = 29.02 ms    (72.5 %), step = 48.83 us     (122 m%)
    tran: time = 31.03 ms    (77.6 %), step = 47.73 us     (119 m%)
    tran: time = 33.04 ms    (82.6 %), step = 46.87 us     (117 m%)
    tran: time = 35.01 ms    (87.5 %), step = 49.48 us     (124 m%)
    tran: time = 37.02 ms    (92.6 %), step = 48.29 us     (121 m%)
    tran: time = 39.04 ms    (97.6 %), step = 47.3 us      (118 m%)
Number of accepted tran steps =             852

Maximum value achieved for any signal of each quantity: 
V: V(S<0>) = 3.3 V
I: I(V0:p) = 6.445 uA
Maximum value of each quantity, excluding Verilog-A modules or dangling current sources:
V: V(vout_filt) = 1.612 V
I: I(V0:p) = 6.445 uA

~~~~~~~~~~~~~~~~~~~~~~~~~~~~~~~~~
Post-Transient Simulation Summary
~~~~~~~~~~~~~~~~~~~~~~~~~~~~~~~~~
   -   To further speed up simulation, consider
          add ++aps on command line
   -   Non-default settings that could significantly slow down simulation
          errpreset = conservative, default moderate
          reltol = 10e-06, default 100e-06 (conservative)
~~~~~~~~~~~~~~~~~~~~~~~~~~~~~~~~~


During simulation, the CPU load for active processors is :
         0 (81.9 %)      1 (25.3 %)      2 (12.9 %)      3 (18.8 %)
         4 (5.1 %)       5 (4.7 %)       6 (2.3 %)       7 (3.5 %)
         8 (7.8 %)       9 (2.9 %)      10 (3.9 %)      11 (100.0 %)
        12 (94.8 %)     13 (2.7 %)      14 (7.8 %)      15 (4.3 %)
        16 (5.7 %)      17 (4.3 %)      18 (100.0 %)    19 (4.7 %)
        20 (67.7 %)     21 (66.0 %)     22 (47.5 %)     23 (2.5 %)
        24 (19.5 %)     25 (24.6 %)     26 (51.2 %)     27 (13.5 %)
        28 (57.3 %)     29 (16.6 %)     30 (19.6 %)     31 (100.0 %)
        32 (2.3 %)      33 (15.7 %)     34 (27.7 %)     35 (3.3 %)
        36 (15.1 %)     37 (3.5 %)      38 (25.3 %)     39 (100.0 %)
        40 (10.7 %)     41 (5.5 %)      42 (3.7 %)      43 (19.8 %)
        44 (16.9 %)     45 (4.7 %)      46 (58.6 %)     47 (12.7 %)
        Total: 1304.9%
Initial condition solution time: CPU = 3.165 ms, elapsed = 3.16596 ms.
Intrinsic tran analysis time:    CPU = 515.396 ms, elapsed = 517.053 ms.
Total time required for tran analysis `tran': CPU = 520.354 ms, elapsed = 522.664 ms, util. = 99.6%.
Time accumulated: CPU = 4.57519 s, elapsed = 5.27395 s.
Peak resident memory used = 214 Mbytes.


Notice from spectre during transient analysis `tran', during Monte Carlo analysis `mc1'.
    34 warnings suppressed.

finalTimeOP: writing operating point information to rawfile.

Opening the PSF file ../psf/mc1_separate/006/finalTimeOP.info ...
modelParameter: writing model parameter values to rawfile.

Opening the PSF file ../psf/mc1_separate/006/modelParameter.info ...
element: writing instance parameter values to rawfile.

Opening the PSF file ../psf/mc1_separate/006/element.info ...
outputParameter: writing output parameter values to rawfile.

Opening the PSF file ../psf/mc1_separate/006/outputParameter.info ...
designParamVals: writing netlist parameters to rawfile.

Opening the PSFASCII file ../psf/mc1_separate/006/designParamVals.info ...
primitives: writing primitives to rawfile.

Opening the PSFASCII file ../psf/mc1_separate/006/primitives.info.primitives ...
subckts: writing subcircuits to rawfile.

Opening the PSFASCII file ../psf/mc1_separate/006/subckts.info.subckts ...
    mc1: iteration = 6           (10.2 %), step = 1            (2.04 %)
7  12.24% 

*****************************************************************************************
* 
* INFO: AMS_processOption = C35B4C3
* 
* INFO: Valid Modules  PIP VG5 HIRES
* 
*****************************************************************************************


******************
DC Analysis `dcOp'
******************

Opening the PSF file ../psf/mc1_separate/007/dcOp.dc ...
Important parameter values:
    reltol = 100e-06
    abstol(V) = 1 uV
    abstol(I) = 1 pA
    temp = 85 C
    tnom = 27 C
    tempeffects = all
    gmindc = 1 pS
    rabsshort = 1 mOhm

Notice from spectre during DC analysis `dcOp', during Monte Carlo analysis `mc1'.
    Bad pivoting is found during DC analysis. Option dc_pivot_check=yes is recommended for possible improvement of convergence.


Maximum value achieved for any signal of each quantity: 
V: V(S<0>) = 3.3 V
I: I(V0:p) = 6.582 uA
Maximum value of each quantity, excluding Verilog-A modules or dangling current sources:
V: V(vout_filt) = 1.601 V
I: I(V0:p) = 6.582 uA

Warning from spectre during check, during DC analysis `dcOp', during Monte Carlo analysis `mc1'.
    WARNING (CMI-2943): Parameter checks have been ignored because the valid value for parameter 'trise' could not be found in 'C1'.
    WARNING (CMI-2943): Parameter checks have been ignored because the valid value for parameter 'trise' could not be found in 'I0.R2.CM'.
    WARNING (CMI-2943): Parameter checks have been ignored because the valid value for parameter 'trise' could not be found in 'I0.R2.CS1'.
    WARNING (CMI-2943): Parameter checks have been ignored because the valid value for parameter 'trise' could not be found in 'I0.R2.CS0'.
    WARNING (CMI-2943): Parameter checks have been ignored because the valid value for parameter 'trise' could not be found in 'I0.C8<3>.C1'.
        Further occurrences of this warning will be suppressed.

Convergence achieved in 21 iterations.
DC simulation time: CPU = 5.584 ms, elapsed = 6.89006 ms.
Total time required for dc analysis `dcOp': CPU = 6.038 ms, elapsed = 7.34401 ms, util. = 82.2%.
Time accumulated: CPU = 4.62019 s, elapsed = 5.33138 s.
Peak resident memory used = 214 Mbytes.


Notice from spectre during Monte Carlo analysis `mc1'.
    34 warnings suppressed.

dcOpInfo: writing operating point information to rawfile.

Opening the PSF file ../psf/mc1_separate/007/dcOpInfo.info ...

************************************************
Transient Analysis `tran': time = (0 s -> 40 ms)
************************************************

Opening the PSF file ../psf/mc1_separate/007/tran.tran.tran ...

Notice from spectre during IC analysis, during transient analysis `tran', during Monte Carlo analysis `mc1'.
    Bad pivoting is found during DC analysis. Option dc_pivot_check=yes is recommended for possible improvement of convergence.
Warning from spectre during check, during IC analysis, during transient analysis `tran', during Monte Carlo analysis `mc1'.
    WARNING (CMI-2943): Parameter checks have been ignored because the valid value for parameter 'trise' could not be found in 'C1'.
    WARNING (CMI-2943): Parameter checks have been ignored because the valid value for parameter 'trise' could not be found in 'I0.R2.CM'.
    WARNING (CMI-2943): Parameter checks have been ignored because the valid value for parameter 'trise' could not be found in 'I0.R2.CS1'.
    WARNING (CMI-2943): Parameter checks have been ignored because the valid value for parameter 'trise' could not be found in 'I0.R2.CS0'.
    WARNING (CMI-2943): Parameter checks have been ignored because the valid value for parameter 'trise' could not be found in 'I0.C8<3>.C1'.
        Further occurrences of this warning will be suppressed.

Convergence achieved in 21 iterations.
DC simulation time: CPU = 3.273 ms, elapsed = 3.27301 ms.
Important parameter values:
    start = 0 s
    outputstart = 0 s
    stop = 40 ms
    step = 40 us
    maxstep = 400 us
    ic = all
    useprevic = no
    skipdc = no
    reltol = 10e-06
    abstol(V) = 1 uV
    abstol(I) = 1 pA
    temp = 85 C
    tnom = 27 C
    tempeffects = all
    errpreset = conservative
    method = gear2only
    lteratio = 10
    relref = alllocal
    cmin = 0 F
    gmin = 1 pS
    rabsshort = 1 mOhm


Notice from spectre during transient analysis `tran', during Monte Carlo analysis `mc1'.
    Multithreading is disabled due to the size of the design being too small.


Output and IC/nodeset summary:
                 save   8       (current)
                 save   87      (voltage)

    tran: time = 1.032 ms    (2.58 %), step = 47.61 us     (119 m%)
    tran: time = 3.045 ms    (7.61 %), step = 46.76 us     (117 m%)
    tran: time = 5.012 ms    (12.5 %), step = 49.24 us     (123 m%)
    tran: time = 7.026 ms    (17.6 %), step = 48.06 us     (120 m%)
    tran: time = 9.039 ms    (22.6 %), step = 47.1 us      (118 m%)
    tran: time = 11.01 ms    (27.5 %), step = 49.83 us     (125 m%)
    tran: time = 13.02 ms    (32.5 %), step = 48.55 us     (121 m%)
    tran: time = 15.03 ms    (37.6 %), step = 47.48 us     (119 m%)
    tran: time = 17 ms       (42.5 %), step = 50 us        (125 m%)
    tran: time = 19.01 ms    (47.5 %), step = 49.07 us     (123 m%)
    tran: time = 21.03 ms    (52.6 %), step = 47.91 us     (120 m%)
    tran: time = 23.04 ms    (57.6 %), step = 46.99 us     (117 m%)
    tran: time = 25.01 ms    (62.5 %), step = 49.64 us     (124 m%)
    tran: time = 27.02 ms    (67.6 %), step = 48.39 us     (121 m%)
    tran: time = 29.04 ms    (72.6 %), step = 47.36 us     (118 m%)
    tran: time = 31 ms       (77.5 %), step = 50 us        (125 m%)
    tran: time = 33.02 ms    (82.5 %), step = 48.9 us      (122 m%)
    tran: time = 35.03 ms    (87.6 %), step = 47.76 us     (119 m%)
    tran: time = 37.04 ms    (92.6 %), step = 46.88 us     (117 m%)
    tran: time = 39.01 ms    (97.5 %), step = 49.44 us     (124 m%)
[...]
Initial condition solution time: CPU = 3.359 ms, elapsed = 3.36003 ms.
Intrinsic tran analysis time:    CPU = 526.525 ms, elapsed = 528.702 ms.
Total time required for tran analysis `tran': CPU = 531.816 ms, elapsed = 534.562 ms, util. = 99.5%.
Time accumulated: CPU = 28.8893 s, elapsed = 30.3224 s.
Peak resident memory used = 215 Mbytes.


Notice from spectre during transient analysis `tran', during Monte Carlo analysis `mc1'.
    34 warnings suppressed.

finalTimeOP: writing operating point information to rawfile.

Opening the PSF file ../psf/mc1_separate/048/finalTimeOP.info ...
modelParameter: writing model parameter values to rawfile.

Opening the PSF file ../psf/mc1_separate/048/modelParameter.info ...
element: writing instance parameter values to rawfile.

Opening the PSF file ../psf/mc1_separate/048/element.info ...
outputParameter: writing output parameter values to rawfile.

Opening the PSF file ../psf/mc1_separate/048/outputParameter.info ...
designParamVals: writing netlist parameters to rawfile.

Opening the PSFASCII file ../psf/mc1_separate/048/designParamVals.info ...
primitives: writing primitives to rawfile.

Opening the PSFASCII file ../psf/mc1_separate/048/primitives.info.primitives ...
subckts: writing subcircuits to rawfile.

Opening the PSFASCII file ../psf/mc1_separate/048/subckts.info.subckts ...
    mc1: iteration = 48          (95.9 %), step = 1            (2.04 %)
49  97.96% 

*****************************************************************************************
* 
* INFO: AMS_processOption = C35B4C3
* 
* INFO: Valid Modules  PIP VG5 HIRES
* 
*****************************************************************************************


******************
DC Analysis `dcOp'
******************

Opening the PSF file ../psf/mc1_separate/049/dcOp.dc ...
Important parameter values:
    reltol = 100e-06
    abstol(V) = 1 uV
    abstol(I) = 1 pA
    temp = 85 C
    tnom = 27 C
    tempeffects = all
    gmindc = 1 pS
    rabsshort = 1 mOhm

Notice from spectre during DC analysis `dcOp', during Monte Carlo analysis `mc1'.
    Bad pivoting is found during DC analysis. Option dc_pivot_check=yes is recommended for possible improvement of convergence.


Maximum value achieved for any signal of each quantity: 
V: V(S<0>) = 3.3 V
I: I(V0:p) = 6.475 uA
Maximum value of each quantity, excluding Verilog-A modules or dangling current sources:
V: V(vout_filt) = 1.6 V
I: I(V0:p) = 6.475 uA

Warning from spectre during check, during DC analysis `dcOp', during Monte Carlo analysis `mc1'.
    WARNING (CMI-2943): Parameter checks have been ignored because the valid value for parameter 'trise' could not be found in 'C1'.
    WARNING (CMI-2943): Parameter checks have been ignored because the valid value for parameter 'trise' could not be found in 'I0.R2.CM'.
    WARNING (CMI-2943): Parameter checks have been ignored because the valid value for parameter 'trise' could not be found in 'I0.R2.CS1'.
    WARNING (CMI-2943): Parameter checks have been ignored because the valid value for parameter 'trise' could not be found in 'I0.R2.CS0'.
    WARNING (CMI-2943): Parameter checks have been ignored because the valid value for parameter 'trise' could not be found in 'I0.C8<3>.C1'.
        Further occurrences of this warning will be suppressed.

Convergence achieved in 21 iterations.
DC simulation time: CPU = 6.528 ms, elapsed = 8.03494 ms.
Total time required for dc analysis `dcOp': CPU = 7.11 ms, elapsed = 8.62002 ms, util. = 82.5%.
Time accumulated: CPU = 28.9363 s, elapsed = 30.3817 s.
Peak resident memory used = 215 Mbytes.


Notice from spectre during Monte Carlo analysis `mc1'.
    34 warnings suppressed.

dcOpInfo: writing operating point information to rawfile.

Opening the PSF file ../psf/mc1_separate/049/dcOpInfo.info ...

************************************************
Transient Analysis `tran': time = (0 s -> 40 ms)
************************************************

Opening the PSF file ../psf/mc1_separate/049/tran.tran.tran ...

Notice from spectre during IC analysis, during transient analysis `tran', during Monte Carlo analysis `mc1'.
    Bad pivoting is found during DC analysis. Option dc_pivot_check=yes is recommended for possible improvement of convergence.
Warning from spectre during check, during IC analysis, during transient analysis `tran', during Monte Carlo analysis `mc1'.
    WARNING (CMI-2943): Parameter checks have been ignored because the valid value for parameter 'trise' could not be found in 'C1'.
    WARNING (CMI-2943): Parameter checks have been ignored because the valid value for parameter 'trise' could not be found in 'I0.R2.CM'.
    WARNING (CMI-2943): Parameter checks have been ignored because the valid value for parameter 'trise' could not be found in 'I0.R2.CS1'.
    WARNING (CMI-2943): Parameter checks have been ignored because the valid value for parameter 'trise' could not be found in 'I0.R2.CS0'.
    WARNING (CMI-2943): Parameter checks have been ignored because the valid value for parameter 'trise' could not be found in 'I0.C8<3>.C1'.
        Further occurrences of this warning will be suppressed.

Convergence achieved in 21 iterations.
DC simulation time: CPU = 3.376 ms, elapsed = 3.37696 ms.
Important parameter values:
    start = 0 s
    outputstart = 0 s
    stop = 40 ms
    step = 40 us
    maxstep = 400 us
    ic = all
    useprevic = no
    skipdc = no
    reltol = 10e-06
    abstol(V) = 1 uV
    abstol(I) = 1 pA
    temp = 85 C
    tnom = 27 C
    tempeffects = all
    errpreset = conservative
    method = gear2only
    lteratio = 10
    relref = alllocal
    cmin = 0 F
    gmin = 1 pS
    rabsshort = 1 mOhm


Notice from spectre during transient analysis `tran', during Monte Carlo analysis `mc1'.
    Multithreading is disabled due to the size of the design being too small.


Output and IC/nodeset summary:
                 save   8       (current)
                 save   87      (voltage)

    tran: time = 1.019 ms    (2.55 %), step = 48.59 us     (121 m%)
    tran: time = 3.033 ms    (7.58 %), step = 47.52 us     (119 m%)
    tran: time = 5.046 ms    (12.6 %), step = 46.7 us      (117 m%)
    tran: time = 7.013 ms    (17.5 %), step = 49.17 us     (123 m%)
    tran: time = 9.026 ms    (22.6 %), step = 48.01 us     (120 m%)
    tran: time = 11.04 ms    (27.6 %), step = 47.07 us     (118 m%)
    tran: time = 13.01 ms    (32.5 %), step = 49.81 us     (125 m%)
    tran: time = 15.02 ms    (37.5 %), step = 48.55 us     (121 m%)
    tran: time = 17.03 ms    (42.6 %), step = 47.49 us     (119 m%)
    tran: time = 19.05 ms    (47.6 %), step = 46.67 us     (117 m%)
    tran: time = 21.01 ms    (52.5 %), step = 49.12 us     (123 m%)
    tran: time = 23.03 ms    (57.6 %), step = 47.97 us     (120 m%)
    tran: time = 25.04 ms    (62.6 %), step = 47.05 us     (118 m%)
    tran: time = 27.01 ms    (67.5 %), step = 49.76 us     (124 m%)
    tran: time = 29.02 ms    (72.6 %), step = 48.5 us      (121 m%)
    tran: time = 31.03 ms    (77.6 %), step = 47.46 us     (119 m%)
    tran: time = 33 ms       (82.5 %), step = 50 us        (125 m%)
    tran: time = 35.01 ms    (87.5 %), step = 49.08 us     (123 m%)
    tran: time = 37.03 ms    (92.6 %), step = 47.93 us     (120 m%)
    tran: time = 39.04 ms    (97.6 %), step = 47.02 us     (118 m%)
Number of accepted tran steps =             851

Maximum value achieved for any signal of each quantity: 
V: V(S<0>) = 3.3 V
I: I(V0:p) = 6.475 uA
Maximum value of each quantity, excluding Verilog-A modules or dangling current sources:
V: V(vout_filt) = 1.614 V
I: I(V0:p) = 6.475 uA

~~~~~~~~~~~~~~~~~~~~~~~~~~~~~~~~~
Post-Transient Simulation Summary
~~~~~~~~~~~~~~~~~~~~~~~~~~~~~~~~~
   -   To further speed up simulation, consider
          add ++aps on command line
   -   Non-default settings that could significantly slow down simulation
          errpreset = conservative, default moderate
          reltol = 10e-06, default 100e-06 (conservative)
~~~~~~~~~~~~~~~~~~~~~~~~~~~~~~~~~


During simulation, the CPU load for active processors is :
         0 (22.3 %)      1 (42.8 %)      2 (13.8 %)      3 (22.5 %)
         4 (53.4 %)      5 (14.1 %)      6 (19.1 %)      7 (21.4 %)
         8 (6.7 %)       9 (14.7 %)     10 (18.6 %)     11 (100.0 %)
        12 (29.8 %)     13 (29.4 %)     14 (31.4 %)     15 (14.1 %)
        16 (15.3 %)     17 (12.2 %)     18 (38.8 %)     19 (10.9 %)
        20 (37.6 %)     21 (60.2 %)     22 (58.1 %)     23 (15.8 %)
        24 (28.4 %)     25 (29.9 %)     26 (13.8 %)     27 (23.9 %)
        28 (20.5 %)     29 (32.8 %)     30 (37.4 %)     31 (100.0 %)
        32 (23.4 %)     33 (32.6 %)     34 (27.0 %)     35 (7.8 %)
        36 (28.8 %)     37 (27.0 %)     38 (26.0 %)     39 (100.0 %)
        40 (18.1 %)     41 (15.6 %)     42 (13.1 %)     43 (9.0 %)
        44 (15.0 %)     45 (41.5 %)     46 (19.2 %)     47 (23.8 %)
        Total: 1417.6%
Initial condition solution time: CPU = 3.414 ms, elapsed = 3.41606 ms.
Intrinsic tran analysis time:    CPU = 527.788 ms, elapsed = 529.453 ms.
Total time required for tran analysis `tran': CPU = 533.413 ms, elapsed = 535.706 ms, util. = 99.6%.
Time accumulated: CPU = 29.4773 s, elapsed = 30.9275 s.
Peak resident memory used = 215 Mbytes.


Notice from spectre during transient analysis `tran', during Monte Carlo analysis `mc1'.
    34 warnings suppressed.

finalTimeOP: writing operating point information to rawfile.

Opening the PSF file ../psf/mc1_separate/049/finalTimeOP.info ...
modelParameter: writing model parameter values to rawfile.

Opening the PSF file ../psf/mc1_separate/049/modelParameter.info ...
element: writing instance parameter values to rawfile.

Opening the PSF file ../psf/mc1_separate/049/element.info ...
outputParameter: writing output parameter values to rawfile.

Opening the PSF file ../psf/mc1_separate/049/outputParameter.info ...
designParamVals: writing netlist parameters to rawfile.

Opening the PSFASCII file ../psf/mc1_separate/049/designParamVals.info ...
primitives: writing primitives to rawfile.

Opening the PSFASCII file ../psf/mc1_separate/049/primitives.info.primitives ...
subckts: writing subcircuits to rawfile.

Opening the PSFASCII file ../psf/mc1_separate/049/subckts.info.subckts ...
    mc1: iteration = 49            (98 %), step = 1            (2.04 %)
50 100.00% 

*****************************************************************************************
* 
* INFO: AMS_processOption = C35B4C3
* 
* INFO: Valid Modules  PIP VG5 HIRES
* 
*****************************************************************************************


******************
DC Analysis `dcOp'
******************

Opening the PSF file ../psf/mc1_separate/050/dcOp.dc ...
Important parameter values:
    reltol = 100e-06
    abstol(V) = 1 uV
    abstol(I) = 1 pA
    temp = 85 C
    tnom = 27 C
    tempeffects = all
    gmindc = 1 pS
    rabsshort = 1 mOhm

Notice from spectre during DC analysis `dcOp', during Monte Carlo analysis `mc1'.
    Bad pivoting is found during DC analysis. Option dc_pivot_check=yes is recommended for possible improvement of convergence.


Maximum value achieved for any signal of each quantity: 
V: V(S<0>) = 3.3 V
I: I(V0:p) = 6.425 uA
Maximum value of each quantity, excluding Verilog-A modules or dangling current sources:
V: V(vout_filt) = 1.601 V
I: I(V0:p) = 6.425 uA

Warning from spectre during check, during DC analysis `dcOp', during Monte Carlo analysis `mc1'.
    WARNING (CMI-2943): Parameter checks have been ignored because the valid value for parameter 'trise' could not be found in 'C1'.
    WARNING (CMI-2943): Parameter checks have been ignored because the valid value for parameter 'trise' could not be found in 'I0.R2.CM'.
    WARNING (CMI-2943): Parameter checks have been ignored because the valid value for parameter 'trise' could not be found in 'I0.R2.CS1'.
    WARNING (CMI-2943): Parameter checks have been ignored because the valid value for parameter 'trise' could not be found in 'I0.R2.CS0'.
    WARNING (CMI-2943): Parameter checks have been ignored because the valid value for parameter 'trise' could not be found in 'I0.C8<3>.C1'.
        Further occurrences of this warning will be suppressed.

Convergence achieved in 21 iterations.
DC simulation time: CPU = 6.5 ms, elapsed = 8.09002 ms.
Total time required for dc analysis `dcOp': CPU = 7.067 ms, elapsed = 8.65293 ms, util. = 81.7%.
Time accumulated: CPU = 29.5254 s, elapsed = 30.9884 s.
Peak resident memory used = 215 Mbytes.


Notice from spectre during Monte Carlo analysis `mc1'.
    34 warnings suppressed.

dcOpInfo: writing operating point information to rawfile.

Opening the PSF file ../psf/mc1_separate/050/dcOpInfo.info ...

************************************************
Transient Analysis `tran': time = (0 s -> 40 ms)
************************************************

Opening the PSF file ../psf/mc1_separate/050/tran.tran.tran ...

Notice from spectre during IC analysis, during transient analysis `tran', during Monte Carlo analysis `mc1'.
    Bad pivoting is found during DC analysis. Option dc_pivot_check=yes is recommended for possible improvement of convergence.
Warning from spectre during check, during IC analysis, during transient analysis `tran', during Monte Carlo analysis `mc1'.
    WARNING (CMI-2943): Parameter checks have been ignored because the valid value for parameter 'trise' could not be found in 'C1'.
    WARNING (CMI-2943): Parameter checks have been ignored because the valid value for parameter 'trise' could not be found in 'I0.R2.CM'.
    WARNING (CMI-2943): Parameter checks have been ignored because the valid value for parameter 'trise' could not be found in 'I0.R2.CS1'.
    WARNING (CMI-2943): Parameter checks have been ignored because the valid value for parameter 'trise' could not be found in 'I0.R2.CS0'.
    WARNING (CMI-2943): Parameter checks have been ignored because the valid value for parameter 'trise' could not be found in 'I0.C8<3>.C1'.
        Further occurrences of this warning will be suppressed.

Convergence achieved in 21 iterations.
DC simulation time: CPU = 3.294 ms, elapsed = 3.29399 ms.
Important parameter values:
    start = 0 s
    outputstart = 0 s
    stop = 40 ms
    step = 40 us
    maxstep = 400 us
    ic = all
    useprevic = no
    skipdc = no
    reltol = 10e-06
    abstol(V) = 1 uV
    abstol(I) = 1 pA
    temp = 85 C
    tnom = 27 C
    tempeffects = all
    errpreset = conservative
    method = gear2only
    lteratio = 10
    relref = alllocal
    cmin = 0 F
    gmin = 1 pS
    rabsshort = 1 mOhm


Notice from spectre during transient analysis `tran', during Monte Carlo analysis `mc1'.
    Multithreading is disabled due to the size of the design being too small.


Output and IC/nodeset summary:
                 save   8       (current)
                 save   87      (voltage)

    tran: time = 1.035 ms    (2.59 %), step = 47.36 us     (118 m%)
    tran: time = 3.002 ms    (7.51 %), step = 50 us        (125 m%)
    tran: time = 5.016 ms    (12.5 %), step = 48.91 us     (122 m%)
    tran: time = 7.029 ms    (17.6 %), step = 47.77 us     (119 m%)
    tran: time = 9.043 ms    (22.6 %), step = 46.89 us     (117 m%)
    tran: time = 11.01 ms    (27.5 %), step = 49.47 us     (124 m%)
    tran: time = 13.02 ms    (32.6 %), step = 48.25 us     (121 m%)
    tran: time = 15.04 ms    (37.6 %), step = 47.25 us     (118 m%)
    tran: time = 17 ms       (42.5 %), step = 50 us        (125 m%)
    tran: time = 19.02 ms    (47.5 %), step = 48.75 us     (122 m%)
    tran: time = 21.03 ms    (52.6 %), step = 47.64 us     (119 m%)
    tran: time = 23.04 ms    (57.6 %), step = 46.79 us     (117 m%)
    tran: time = 25.01 ms    (62.5 %), step = 49.29 us     (123 m%)
    tran: time = 27.03 ms    (67.6 %), step = 48.1 us      (120 m%)
    tran: time = 29.04 ms    (72.6 %), step = 47.13 us     (118 m%)
    tran: time = 31.01 ms    (77.5 %), step = 49.89 us     (125 m%)
    tran: time = 33.02 ms    (82.5 %), step = 48.59 us     (121 m%)
    tran: time = 35.03 ms    (87.6 %), step = 47.52 us     (119 m%)
    tran: time = 37.05 ms    (92.6 %), step = 46.69 us     (117 m%)
    tran: time = 39.01 ms    (97.5 %), step = 49.13 us     (123 m%)
Number of accepted tran steps =             851

Maximum value achieved for any signal of each quantity: 
V: V(S<0>) = 3.3 V
I: I(V0:p) = 6.425 uA
Maximum value of each quantity, excluding Verilog-A modules or dangling current sources:
V: V(vout_filt) = 1.614 V
I: I(V0:p) = 6.425 uA

~~~~~~~~~~~~~~~~~~~~~~~~~~~~~~~~~
Post-Transient Simulation Summary
~~~~~~~~~~~~~~~~~~~~~~~~~~~~~~~~~
   -   To further speed up simulation, consider
          add ++aps on command line
   -   Non-default settings that could significantly slow down simulation
          errpreset = conservative, default moderate
          reltol = 10e-06, default 100e-06 (conservative)
~~~~~~~~~~~~~~~~~~~~~~~~~~~~~~~~~


During simulation, the CPU load for active processors is :
         0 (21.9 %)      1 (43.8 %)      2 (13.6 %)      3 (22.3 %)
         4 (52.4 %)      5 (14.0 %)      6 (18.8 %)      7 (21.5 %)
         8 (8.4 %)       9 (15.4 %)     10 (18.4 %)     11 (100.0 %)
        12 (29.5 %)     13 (29.5 %)     14 (32.2 %)     15 (13.9 %)
        16 (15.1 %)     17 (12.1 %)     18 (38.1 %)     19 (10.8 %)
        20 (37.1 %)     21 (60.9 %)     22 (58.3 %)     23 (15.9 %)
        24 (27.9 %)     25 (31.2 %)     26 (13.6 %)     27 (23.6 %)
        28 (20.3 %)     29 (32.2 %)     30 (36.7 %)     31 (100.0 %)
        32 (23.0 %)     33 (32.0 %)     34 (26.8 %)     35 (7.7 %)
        36 (28.3 %)     37 (27.3 %)     38 (26.4 %)     39 (100.0 %)
        40 (17.9 %)     41 (15.5 %)     42 (13.0 %)     43 (8.8 %)
        44 (14.9 %)     45 (42.5 %)     46 (19.0 %)     47 (23.5 %)
        Total: 1415.9%
Initial condition solution time: CPU = 3.333 ms, elapsed = 3.33405 ms.
Intrinsic tran analysis time:    CPU = 516.277 ms, elapsed = 517.846 ms.
Total time required for tran analysis `tran': CPU = 521.792 ms, elapsed = 523.938 ms, util. = 99.6%.
Time accumulated: CPU = 30.0549 s, elapsed = 31.523 s.
Peak resident memory used = 215 Mbytes.


Notice from spectre during transient analysis `tran', during Monte Carlo analysis `mc1'.
    34 warnings suppressed.

finalTimeOP: writing operating point information to rawfile.

Opening the PSF file ../psf/mc1_separate/050/finalTimeOP.info ...
modelParameter: writing model parameter values to rawfile.

Opening the PSF file ../psf/mc1_separate/050/modelParameter.info ...
element: writing instance parameter values to rawfile.

Opening the PSF file ../psf/mc1_separate/050/element.info ...
outputParameter: writing output parameter values to rawfile.

Opening the PSF file ../psf/mc1_separate/050/outputParameter.info ...
designParamVals: writing netlist parameters to rawfile.

Opening the PSFASCII file ../psf/mc1_separate/050/designParamVals.info ...
primitives: writing primitives to rawfile.

Opening the PSFASCII file ../psf/mc1_separate/050/primitives.info.primitives ...
subckts: writing subcircuits to rawfile.

Opening the PSFASCII file ../psf/mc1_separate/050/subckts.info.subckts ...
    mc1: iteration = 50           (100 %), step = 1            (2.04 %)
Total time required for montecarlo analysis `mc1': CPU = 29.6192 s, elapsed = 30.5263 s, util. = 97%.
Time accumulated: CPU = 30.0831 s, elapsed = 31.5653 s.
Peak resident memory used = 215 Mbytes.

Licensing Information:
Lic Summary:
[09:09:01.122529] Cdslmd servers:3000@lic08.ug.kth.se:29000@lic06.ug.kth.se
[09:09:01.122570] Feature usage summary:
[09:09:01.122577] Virtuoso_Multi_mode_Simulation


Aggregate audit (9:09:01 AM, Thur Apr 16, 2026):
Time used: CPU = 30.1 s, elapsed = 31.6 s, util. = 95.3%.
Time spent in licensing: elapsed = 52.7 ms.
Peak memory used = 215 Mbytes.
Simulation started at: 9:08:29 AM, Thur Apr 16, 2026, ended at: 9:09:01 AM, Thur Apr 16, 2026, with elapsed time (wall clock): 31.6 s.
spectre completes with 0 errors, 527 warnings, and 262 notices.
