
Spectre (R) Circuit Simulator
Version 24.1.0.288.isr5 64bit -- 3 Apr 2025
Copyright (C) 1989-2025 Cadence Design Systems, Inc. All rights reserved worldwide. Cadence and Spectre are registered trademarks of Cadence Design Systems, Inc. All others are the property of their respective holders.

Includes RSA BSAFE(R) Cryptographic or Security Protocol Software from RSA Security, Inc.

User: davidevi   Host: il2244vt26_davidevi   HostID: 11AC2C00   PID: 863112
Memory  available: 3.0574 TB  physical: 3.2467 TB
Linux   : Rocky Linux release 8.10 (Green Obsidian)
CPU Type: Intel(R) Xeon(R) CPU E7-8857 v2 @ 3.00GHz
        Socket: Processors [Frequency]
        0:       0 [3377.7],  1 [3390.0],  2 [3372.8],  3 [3600.0],  4 [3600.0]
                 5 [3600.0],  6 [3389.9],  7 [3389.9],  8 [3390.0],  9 [3600.0]
                10 [3600.0], 11 [3600.0]
        1:      12 [3397.3], 13 [3397.4], 14 [3600.0], 15 [3600.0], 16 [3600.0]
                17 [3394.3], 18 [3397.3], 19 [3391.3], 20 [3393.9], 21 [3397.2]
                22 [3397.3], 23 [3396.9]
        2:      24 [3600.0], 25 [3399.9], 26 [3399.9], 27 [3600.0], 28 [3600.0]
                29 [3399.9], 30 [3399.9], 31 [3600.0], 32 [3399.9], 33 [3600.0]
                34 [3399.9], 35 [3399.9]
        3:      36 [3600.0], 37 [3388.6], 38 [3600.0], 39 [3391.3], 40 [3600.0]
                41 [3600.0], 42 [3387.4], 43 [3600.0], 44 [3600.0], 45 [3389.4]
                46 [3391.3], 47 [3391.3]
        
System load averages (1min, 5min, 15min) : 15.0 %, 14.9 %, 14.7 %
HPC is enabled


Simulating `input.scs' on il2244vt26_davidevi at 12:39:01 PM, Fri Apr 10, 2026 (process id: 863112).
Current working directory: /home/davidevi/Desktop/myproject/Sim/VGA/VGA_1_pss_tb/maestro/results/maestro/ExplorerRun.0/82/MC/groupRunDataDir/netlist
Command line:
    /opt/tools/cadence/installs/SPECTRE241/tools/bin/spectre -64  \
        input.scs +escchars +log ../psf/spectre.out -format psfbin  \
        +rtsf -raw ../psf +preset=cx +mt +lqtimeout 900 -maxw 5 -maxn 5  \
        +param /opt/pdk/ams/410/spectre/ams_range.lmts -env ade  \
        +adespetkn=0001089D13A302B663E41FB550AF0DF415A679A322D5069144BF588C12F604E07EF416DC01A319B562BB63D362FF24B645A34ED001B71FAB65C0449344CE4F925FAA79D15D9175FF34986BDD0AF002BA50FD7FD707E002A700AC1C8404FE5AE30EA979D118F874D3349879D118F874D334981009F79D9BB65D400000368B  \
        -ahdllibdir  \
        /home/davidevi/Desktop/myproject/Sim/VGA/VGA_1_pss_tb/maestro/results/maestro/ExplorerRun.0/sharedData/lscsJob373/ahdl/input.ahdlSimDB  \
        +logstatus

Simulation Id: Per7fYQXkxgwVpk2
Licensing Information:
[12:39:02.121738] Configured Lic search path (24.01-s002): 3000@lic08.ug.kth.se:29000@lic06.ug.kth.se

Licensing Information:
[12:39:02.183722] Periodic Lic check successful

Loading /opt/tools/cadence/installs/SPECTRE241/tools.lnx86/cmi/lib/64bit/5.0/libinfineon_sh.so ...
Loading /opt/tools/cadence/installs/SPECTRE241/tools.lnx86/cmi/lib/64bit/5.0/libphilips_I_sh.so ...
Loading /opt/tools/cadence/installs/SPECTRE241/tools.lnx86/cmi/lib/64bit/5.0/libphilips_sh.so ...
Loading /opt/tools/cadence/installs/SPECTRE241/tools.lnx86/cmi/lib/64bit/5.0/libsparam_sh.so ...
Loading /opt/tools/cadence/installs/SPECTRE241/tools.lnx86/cmi/lib/64bit/5.0/libstmodels_sh.so ...

Warning from spectre.
    WARNING (SPECTRE-691): This CPU processor does not support x86 advanced vector extensions instructions. This may affect math operations and slow down the simulation.

Reading file:  /home/davidevi/Desktop/myproject/Sim/VGA/VGA_1_pss_tb/maestro/results/maestro/ExplorerRun.0/82/MC/groupRunDataDir/netlist/input.scs

Notice from spectre during circuit read-in.
    Pre_Configuration file used: /opt/tools/cadence/installs/SPECTRE241/tools.lnx86/spectre/etc/configs/preset.precfg
    Configuration file used: `/opt/tools/cadence/installs/SPECTRE241/tools.lnx86/spectre/etc/configs/preset.cfg'.

Reading file:  /opt/pdk/ams/410/spectre/ams_range.lmts

Warning from spectre during read of parameter soft limits file `/opt/pdk/ams/410/spectre/ams_range.lmts', during circuit read-in.
    WARNING (SPECTRE-8360): line 1511: `ac' is an undefined primitive device.
    WARNING (SPECTRE-8360): line 1512: `ac' is an undefined primitive device.
    WARNING (SPECTRE-8360): line 1513: `ac' is an undefined primitive device.
    WARNING (SPECTRE-8360): line 1514: `ac' is an undefined primitive device.
    WARNING (SPECTRE-8360): line 1515: `ac' is an undefined primitive device.
        Further occurrences of this warning will be suppressed.

Reading file:  /opt/tools/cadence/installs/SPECTRE241/tools.lnx86/spectre/etc/configs/spectre.cfg
Reading file:  /opt/tools/cadence/installs/SPECTRE241/tools.lnx86/spectre/etc/configs/preset.precfg
Reading file:  /opt/pdk/ams/410/spectre/c35/soac/soac.scs
Reading file:  /opt/pdk/ams/410/spectre/c35/processOption.scs
Reading file:  /opt/pdk/ams/410/spectre/c35/process.scs
Reading file:  /opt/pdk/ams/410/spectre/c35/processOption/C35B4C3.scs
Reading file:  /opt/pdk/ams/410/spectre/c35/cmos53.scs
Reading file:  /opt/pdk/ams/410/spectre/c35/res.scs
Reading file:  /opt/pdk/ams/410/spectre/c35/cap.scs
Reading file:  /opt/pdk/ams/410/spectre/c35/bip.scs
Reading file:  /opt/pdk/ams/410/spectre/c35/ind.scs
Reading file:  /opt/pdk/ams/410/spectre/c35/esddiode.scs
Reading link:  /home/davidevi/Desktop/myproject/Sim/VGA/VGA_1_pss_tb/maestro/results/maestro/ExplorerRun.0/82/MC/groupRunDataDir/netlist/netlist
Reading file:  /home/davidevi/Desktop/myproject/Sim/VGA/VGA_1_pss_tb/maestro/results/maestro/ExplorerRun.0/psf/MC/netlist/netlist
Reading file:  /opt/tools/cadence/installs/SPECTRE241/tools.lnx86/spectre/etc/configs/preset.cfg
Time for NDB Parsing: CPU = 198.725 ms, elapsed = 399.844 ms.
Time accumulated: CPU = 399.628 ms, elapsed = 399.847 ms.
Peak resident memory used = 179 Mbytes.

Reading link:  /opt/tools/cadence/installs/SPECTRE241/tools.lnx86/spectre/etc/ahdl/discipline.h
Reading file:  /opt/tools/cadence/installs/SPECTRE241/tools.lnx86/spectre/etc/ahdl/disciplines.vams
Reading link:  /opt/tools/cadence/installs/SPECTRE241/tools.lnx86/spectre/etc/ahdl/constants.h
Reading file:  /opt/tools/cadence/installs/SPECTRE241/tools.lnx86/spectre/etc/ahdl/constants.vams

Warning from spectre during AHDL read-in.
    WARNING (VACOMP-2435): The environment variable CDS_AHDLCMI_ENABLE is no longer supported. Therefore, the simulator will use the default compiled C code flow.

Created directory /home/davidevi/Desktop/myproject/Sim/VGA/VGA_1_pss_tb/maestro/results/maestro/ExplorerRun.0/sharedData/lscsJob373/ahdl/input.ahdlSimDB/input.ahdlSimDB/ (775)
Created directory /home/davidevi/Desktop/myproject/Sim/VGA/VGA_1_pss_tb/maestro/results/maestro/ExplorerRun.0/sharedData/lscsJob373/ahdl/input.ahdlSimDB/input.ahdlSimDB//bsource_fcab9d.va.bsource_fcab9d.ahdlcmi/ (775)
Reading file:  /home/davidevi/Desktop/myproject/Sim/ECG_IA/ecg_vga_tb/adexl/results/data/MonteCarlo.3/sharedData/Job173/ahdl/input.ahdlSimDB/input.ahdlSimDB/bsource_fcab9d.va.bsource_fcab9d.ahdlcmi/Linux-64/obj/optimize/5.0/libahdlcmi_bsource_fcab9d.so
Created directory /home/davidevi/Desktop/myproject/Sim/VGA/VGA_1_pss_tb/maestro/results/maestro/ExplorerRun.0/sharedData/lscsJob373/ahdl/input.ahdlSimDB/input.ahdlSimDB//bsource_fcab9d.va.bsource_fcab9d.ahdlcmi/Linux-64/obj/optimize/5.0 
Copying files from directory /home/davidevi/Desktop/myproject/Sim/ECG_IA/ecg_vga_tb/adexl/results/data/MonteCarlo.3/sharedData/Job173/ahdl/input.ahdlSimDB/input.ahdlSimDB/bsource_fcab9d.va.bsource_fcab9d.ahdlcmi/Linux-64/ to directory /home/davidevi/Desktop/myproject/Sim/VGA/VGA_1_pss_tb/maestro/results/maestro/ExplorerRun.0/sharedData/lscsJob373/ahdl/input.ahdlSimDB/input.ahdlSimDB//bsource_fcab9d.va.bsource_fcab9d.ahdlcmi/Linux-64/
Finished copying files from /home/davidevi/Desktop/myproject/Sim/ECG_IA/ecg_vga_tb/adexl/results/data/MonteCarlo.3/sharedData/Job173/ahdl/input.ahdlSimDB/input.ahdlSimDB/bsource_fcab9d.va.bsource_fcab9d.ahdlcmi/Linux-64/ to /home/davidevi/Desktop/myproject/Sim/VGA/VGA_1_pss_tb/maestro/results/maestro/ExplorerRun.0/sharedData/lscsJob373/ahdl/input.ahdlSimDB/input.ahdlSimDB//bsource_fcab9d.va.bsource_fcab9d.ahdlcmi/Linux-64/.
The simulator has reused the existing Verilog-A libraries for this simulation run. If you do not want to use these libraries, set the 'CDS_AHDL_REUSE_LIB' environment variable to 'NO' and rerun the simulation.
Existing shared object for module bsource_fcab9d is up to date.
Installed compiled interface for bsource_fcab9d.

Warning from spectre during hierarchy flattening.
    WARNING (SFE-3016): The floating node net6 is removed.

Time for Elaboration: CPU = 210.701 ms, elapsed = 255.529 ms.
Time accumulated: CPU = 610.47 ms, elapsed = 655.516 ms.
Peak resident memory used = 196 Mbytes.


Notice from spectre during hierarchy flattening.
    The value 'psf' specified for the 'checklimitdest' option will no longer be supported in future releases. Use 'spectre -h' to see other recommended values for the 'checklimitdest' option.


*****************************************************************************************
* 
* INFO: AMS_processOption = C35B4C3
* 
* INFO: Valid Modules  PIP VG5 HIRES
* 
*****************************************************************************************


Time for EDB Visiting: CPU = 6.944 ms, elapsed = 7.50804 ms.
Time accumulated: CPU = 617.526 ms, elapsed = 663.137 ms.
Peak resident memory used = 198 Mbytes.

Loading /opt/tools/cadence/installs/SPECTRE241/tools.lnx86/mdl/lib/64bit/libSpectreEH_sh.so ...

Warning from spectre during initial setup.
    WARNING (SPECTRE-17607): Assert `SOAC_rpolyh_vminuspsub' is ignored because it contains an expression which is invalid or not supported by native evaluator. 
    WARNING (SPECTRE-17607): Assert `SOAC_rpolyh_vpluspsub' is ignored because it contains an expression which is invalid or not supported by native evaluator. 
    WARNING (SPECTRE-16460): SOAC_cvarm_vspsub:Specified subcircuit master `cvarm' was not found.
    WARNING (SPECTRE-16462): SOAC_cvarm_vspsub:Error in specification of subcircuit master. Assert is ignored.
    WARNING (SPECTRE-16460): SOAC_cvarm_vbs:Specified subcircuit master `cvarm' was not found.
    WARNING (SPECTRE-16462): SOAC_cvarm_vbs:Error in specification of subcircuit master. Assert is ignored.
    WARNING (SPECTRE-16460): SOAC_cvarm_vgb:Specified subcircuit master `cvarm' was not found.
    WARNING (SPECTRE-16462): SOAC_cvarm_vgb:Error in specification of subcircuit master. Assert is ignored.
    WARNING (SPECTRE-16460): SOAC_cvart_vspsub:Specified subcircuit master `cvart' was not found.
    WARNING (SPECTRE-16462): SOAC_cvart_vspsub:Error in specification of subcircuit master. Assert is ignored.
    WARNING (SPECTRE-16460): SOAC_cvart_vbs:Specified subcircuit master `cvart' was not found.
        Further occurrences of this warning will be suppressed.
    WARNING (SPECTRE-16462): SOAC_cvart_vbs:Error in specification of subcircuit master. Assert is ignored.
        Further occurrences of this warning will be suppressed.
    WARNING (SPECTRE-17607): Assert `SOAC_cpoly_vminuspsub' is ignored because it contains an expression which is invalid or not supported by native evaluator. 
    WARNING (SPECTRE-17607): Assert `SOAC_cpoly_vpluspsub' is ignored because it contains an expression which is invalid or not supported by native evaluator. 
    WARNING (SPECTRE-17607): Assert `SOAC_modp_vbpsub' is ignored because it contains an expression which is invalid or not supported by native evaluator. 
        Further occurrences of this warning will be suppressed.
Notice from spectre during initial setup.
    Multithreading is disabled due to the size of the design being too small.


Netlist title:
        // Point Netlist Generated on: Apr 10 12:38:58 2026


Warning from spectre during initial setup.
    WARNING (SPECTRE-592): Following parameters are disabled because they are ignored or redefined in Spectre X:
        
        
        PSS Parameters:
          errpreset


Global user options:
         psfversion = 1.4.0
               temp = 27
           homotopy = 5
              limit = delta
         compatible = spice2
               gmin = 1e-12
             rforce = 1
           maxnotes = 5
           maxwarns = 5
             digits = 5
               cols = 80
             pivrel = 0.001
           sensfile = ../psf/sens.output
     checklimitdest = psf
     enable_pre_ver = yes
      ignorezerovar = yes
               save = allpub
               tnom = 27
             scalem = 1
              scale = 1

Scoped user options:

Circuit inventory:
              nodes 33
            bsim3v3 35    
     bsource_fcab9d 2     
          capacitor 38    
            isource 1     
           resistor 1     
            vsource 7     

Analysis and control statement inventory:
               info 7     
         montecarlo 1     
                pss 1     
               tran 1     

Output statements:
             .probe 0     
           .measure 0     
               save 0     

Design checks inventory:
          paramtest 55    
             assert 175   


Notice from spectre during initial setup.
    Spectre X preset=cx enabled.
    73 warnings suppressed.

Time for parsing: CPU = 19.761 ms, elapsed = 615.8 ms.
Time accumulated: CPU = 637.393 ms, elapsed = 1.27904 s.
Peak resident memory used = 206 Mbytes.

~~~~~~~~~~~~~~~~~~~~~~
Pre-Simulation Summary
~~~~~~~~~~~~~~~~~~~~~~
   -   (Spectre X) Multi-threading. The recommended number of threads is 1, consider adding +mt=1 on command line.
~~~~~~~~~~~~~~~~~~~~~~

**************************************************
Monte Carlo Analysis `mc1': iteration = (82 -> 90)
**************************************************
Important parameter values:
    seed = 12345
    sampling = lds
    variations = all
    firstrun = 82
    numruns = 9
    nullmfactorcorrelation = no
    donominal = no
    method = standard
Opening iteration number and data-directory mapping file:  /home/davidevi/Desktop/myproject/Sim/VGA/VGA_1_pss_tb/maestro/results/maestro/ExplorerRun.0/82/MC/groupRunDataDir/netlist/../psf/mc1.mapping

Statistical parameters:
    Defined process parameters: 629
    Defined mismatch parameters (subckt based): 86
    Non-referenced mismatch parameters: 80
    Number of random variables: 707
    Gaussian truncation for process parameters: 4.00 sigma
    Gaussian truncation for mismatch parameters: 4.00 sigma


**** Skipping runs 1 to 81 for `mc1'


Opening the PSF file ../psf/mc1_tran.montecarlo ...

Opening the PSF file ../psf/mc1_finalTimeOP.montecarlo ...

Opening the PSF file ../psf/mc1_pss_td.montecarlo ...

Opening the PSF file ../psf/mc1_pss_fd.montecarlo ...

Opening the PSF file ../psf/mc1_modelParameter.montecarlo ...

Opening the PSF file ../psf/mc1_element.montecarlo ...

Opening the PSF file ../psf/mc1_outputParameter.montecarlo ...

Opening the PSF file ../psf/mc1_designParamVals.montecarlo ...

Opening the PSF file ../psf/mc1_primitives.montecarlo ...

Opening the PSF file ../psf/mc1_subckts.montecarlo ...

**** Performing monte carlo loop for `mc1'

82   0.00% 

Notice from spectre at iteration = 82 during transient analysis `tran', during Monte Carlo analysis `mc1'.
    No checklimit analysis defined for asserts. A default checklimit analysis 'SpectreChecklimitAnal' has been created with all asserts enabled.


*************************************************
Transient Analysis `tran': time = (0 s -> 100 ms)
*************************************************

Opening the PSF file ../psf/mc1_separate/082/tran.tran.tran ...

Notice from spectre at iteration = 82 during IC analysis, during transient analysis `tran', during Monte Carlo analysis `mc1'.
    Bad pivoting is found during DC analysis. Option dc_pivot_check=yes is recommended for possible improvement of convergence.
Warning from spectre at iteration = 82 during check, during IC analysis, during transient analysis `tran', during Monte Carlo analysis `mc1'.
    WARNING (CMI-2943): Parameter checks have been ignored because the valid value for parameter 'trise' could not be found in 'C1'.
    WARNING (CMI-2943): Parameter checks have been ignored because the valid value for parameter 'trise' could not be found in 'I0.C8<0>_turbo_m4.C1'.
    WARNING (CMI-2943): Parameter checks have been ignored because the valid value for parameter 'trise' could not be found in 'I0.C9<0>_turbo_m8.C1'.
    WARNING (CMI-2943): Parameter checks have been ignored because the valid value for parameter 'trise' could not be found in 'I0.C7<0>_turbo_m2.C1'.
    WARNING (CMI-2943): Parameter checks have been ignored because the valid value for parameter 'trise' could not be found in 'I0.R2.CM'.
        Further occurrences of this warning will be suppressed.

Convergence achieved in 16 iterations.
DC simulation time: CPU = 2.832 ms, elapsed = 2.83194 ms.
Important parameter values:
    start = 0 s
    outputstart = 0 s
    stop = 100 ms
    step = 100 us
    maxstep = 1 ms
    ic = all
    useprevic = no
    skipdc = no
    reltol = 100e-06
    abstol(V) = 1 uV
    abstol(I) = 1 pA
    temp = 27 C
    tnom = 27 C
    tempeffects = all
    errpreset = conservative_sigglobal
    method = gear2only
    lteratio = 10
    relref = sigglobal
    cmin = 0 F
    gmin = 1 pS
    rabsshort = 1 mOhm


Notice from spectre at iteration = 82 during transient analysis `tran', during Monte Carlo analysis `mc1'.
    Multithreading is disabled due to the size of the design being too small.


Output and IC/nodeset summary:
                 save   7       (current)
                 save   32      (voltage)

    tran: time = 2.9 ms       (2.9 %), step = 929.7 us     (930 m%)
    tran: time = 7.837 ms    (7.84 %), step = 1 ms            (1 %)
    tran: time = 13.29 ms    (13.3 %), step = 870.8 us     (871 m%)
    tran: time = 18.2 ms     (18.2 %), step = 1 ms            (1 %)
    tran: time = 22.72 ms    (22.7 %), step = 854.4 us     (854 m%)
    tran: time = 27.55 ms    (27.5 %), step = 1 ms            (1 %)
    tran: time = 33.04 ms      (33 %), step = 862.5 us     (862 m%)
    tran: time = 37.91 ms    (37.9 %), step = 1 ms            (1 %)
    tran: time = 43.35 ms    (43.3 %), step = 873 us       (873 m%)
    tran: time = 48.27 ms    (48.3 %), step = 1 ms            (1 %)
    tran: time = 52.78 ms    (52.8 %), step = 855.8 us     (856 m%)
    tran: time = 57.62 ms    (57.6 %), step = 1 ms            (1 %)
    tran: time = 63.1 ms     (63.1 %), step = 864.2 us     (864 m%)
    tran: time = 67.98 ms      (68 %), step = 1 ms            (1 %)
    tran: time = 72.53 ms    (72.5 %), step = 850.9 us     (851 m%)
    tran: time = 78.33 ms    (78.3 %), step = 1 ms            (1 %)
    tran: time = 82.84 ms    (82.8 %), step = 857.1 us     (857 m%)
    tran: time = 87.68 ms    (87.7 %), step = 1 ms            (1 %)
    tran: time = 93.16 ms    (93.2 %), step = 866.2 us     (866 m%)
    tran: time = 98.05 ms    (98.1 %), step = 1 ms            (1 %)
Number of accepted tran steps =             112

Maximum value achieved for any signal of each quantity: 
V: V(net2) = 3.3 V
I: I(V0:p) = 6.602 uA

~~~~~~~~~~~~~~~~~~~~~~~~~~~~~~~~~
Post-Transient Simulation Summary
~~~~~~~~~~~~~~~~~~~~~~~~~~~~~~~~~
   -   Non-default settings that could significantly slow down simulation
          errpreset = conservative_sigglobal, default moderate
~~~~~~~~~~~~~~~~~~~~~~~~~~~~~~~~~


During simulation, the CPU load for active processors is :
         0 (29.6 %)      1 (100.0 %)     2 (73.6 %)      3 (60.2 %)
         4 (46.4 %)      5 (34.1 %)      6 (48.8 %)      7 (32.0 %)
         8 (68.0 %)      9 (52.0 %)     10 (51.6 %)     11 (67.7 %)
        12 (66.7 %)     13 (89.9 %)     14 (32.8 %)     15 (60.9 %)
        16 (48.5 %)     17 (59.7 %)     18 (37.5 %)     19 (33.9 %)
        20 (76.3 %)     21 (63.8 %)     22 (100.0 %)    23 (69.3 %)
        24 (43.0 %)     25 (59.8 %)     26 (59.1 %)     27 (75.4 %)
        28 (54.0 %)     29 (91.5 %)     30 (100.0 %)    31 (58.6 %)
        32 (34.9 %)     33 (53.6 %)     34 (72.2 %)     35 (59.8 %)
        36 (23.0 %)     37 (57.1 %)     38 (55.0 %)     39 (100.0 %)
        40 (55.9 %)     41 (48.8 %)     42 (66.9 %)     43 (42.6 %)
        44 (71.3 %)     45 (29.9 %)     46 (97.7 %)     47 (51.2 %)
        Total: 2864.7%
Initial condition solution time: CPU = 2.872 ms, elapsed = 2.87294 ms.
Intrinsic tran analysis time:    CPU = 22.524 ms, elapsed = 23.793 ms.
Total time required for tran analysis `tran': CPU = 101.455 ms, elapsed = 105.739 ms, util. = 95.9%.
Time accumulated: CPU = 789.564 ms, elapsed = 1.44236 s.
Peak resident memory used = 217 Mbytes.


Notice from spectre during transient analysis `tran', during Monte Carlo analysis `mc1'.
    12 warnings suppressed.

finalTimeOP: writing operating point information to rawfile.

Opening the PSF file ../psf/mc1_separate/082/finalTimeOP.info ...
Licensing Information:
[12:39:03.408427] Periodic Lic check successful


**************************************************
Periodic Steady-State Analysis `pss': fund = 50 Hz
**************************************************

Notice from spectre during IC analysis, during periodic steady state analysis `pss', during Monte Carlo analysis `mc1'.
    Bad pivoting is found during DC analysis. Option dc_pivot_check=yes is recommended for possible improvement of convergence.
Warning from spectre during check, during IC analysis, during periodic steady state analysis `pss', during Monte Carlo analysis `mc1'.
    WARNING (CMI-2943): Parameter checks have been ignored because the valid value for parameter 'trise' could not be found in 'C1'.
    WARNING (CMI-2943): Parameter checks have been ignored because the valid value for parameter 'trise' could not be found in 'I0.C8<0>_turbo_m4.C1'.
    WARNING (CMI-2943): Parameter checks have been ignored because the valid value for parameter 'trise' could not be found in 'I0.C9<0>_turbo_m8.C1'.
    WARNING (CMI-2943): Parameter checks have been ignored because the valid value for parameter 'trise' could not be found in 'I0.C7<0>_turbo_m2.C1'.
    WARNING (CMI-2943): Parameter checks have been ignored because the valid value for parameter 'trise' could not be found in 'I0.R2.CM'.
        Further occurrences of this warning will be suppressed.

Convergence achieved in 16 iterations.
DC simulation time: CPU = 2.652 ms, elapsed = 2.67601 ms.

==================================
pss `tstab': time = (0 s -> 20 ms)
==================================

Output and IC/nodeset summary:
                 save   7       (current)
                 save   32      (voltage)

Important parameter values in tstab integration:
    start = 0 s
    outputstart = 0 s
    stop = 20 ms
    period = 20 ms
    maxperiods = 20
    step = 20 us
    maxstep = 800 us
    ic = all
    useprevic = no
    skipdc = no
    reltol = 1e-03
    abstol(V) = 1 uV
    abstol(I) = 1 pA
    temp = 27 C
    tnom = 27 C
    tempeffects = all
    method = traponly
    lteratio = 3.5
    relref = sigglobal
    cmin = 0 F
    gmin = 1 pS
    rabsshort = 1 mOhm

    pss: time = 794.4 us    (3.97 %), step = 323.9 us     (1.62 %)
    pss: time = 2.107 ms    (10.5 %), step = 800 us          (4 %)
    pss: time = 2.907 ms    (14.5 %), step = 800 us          (4 %)
    pss: time = 3.707 ms    (18.5 %), step = 800 us          (4 %)
    pss: time = 4.507 ms    (22.5 %), step = 800 us          (4 %)
    pss: time = 6.107 ms    (30.5 %), step = 800 us          (4 %)
    pss: time = 6.907 ms    (34.5 %), step = 800 us          (4 %)
    pss: time = 7.707 ms    (38.5 %), step = 800 us          (4 %)
    pss: time = 8.507 ms    (42.5 %), step = 800 us          (4 %)
    pss: time = 10.11 ms    (50.5 %), step = 800 us          (4 %)
    pss: time = 10.91 ms    (54.5 %), step = 800 us          (4 %)
    pss: time = 11.71 ms    (58.5 %), step = 800 us          (4 %)
    pss: time = 12.51 ms    (62.5 %), step = 800 us          (4 %)
    pss: time = 14.11 ms    (70.5 %), step = 800 us          (4 %)
    pss: time = 14.91 ms    (74.5 %), step = 800 us          (4 %)
    pss: time = 15.71 ms    (78.5 %), step = 800 us          (4 %)
    pss: time = 16.51 ms    (82.5 %), step = 800 us          (4 %)
    pss: time = 18.11 ms    (90.5 %), step = 800 us          (4 %)
    pss: time = 18.91 ms    (94.5 %), step = 800 us          (4 %)
    pss: time = 20 ms        (100 %), step = 546.3 us     (2.73 %)
Total time required for tstab analysis `pss': CPU = 6.221 ms, elapsed = 6.28901 ms.
Time accumulated: CPU = 813.103 ms, elapsed = 1.48522 s.
Peak resident memory used = 219 Mbytes.

Conv norm = 28.5, max dV(vout_filt) = -9.81314 mV, took 10 ms.

Important parameter values in pss iteration:
    start = 0 s
    outputstart = 0 s
    stop = 20 ms
    period = 20 ms
    maxperiods = 20
    steadyratio = 10e-03
    step = 20 us
    maxstep = 100 us
    ic = all
    useprevic = no
    skipdc = no
    reltol = 100e-06
    abstol(V) = 1 uV
    abstol(I) = 1 pA
    temp = 27 C
    tnom = 27 C
    tempeffects = all
    errpreset = conservative
    method = gear2only
    lteratio = 10
    relref = sigglobal
    cmin = 0 F
    gmin = 1 pS
    rabsshort = 1 mOhm


Notice from spectre during periodic steady state analysis `pss', during Monte Carlo analysis `mc1'.
    12 warnings suppressed.


============================
`pss': time = (0 s -> 20 ms)
============================
    pss: time = 512.5 us    (2.56 %), step = 12.5 us     (62.5 m%)
    pss: time = 1.512 ms    (7.56 %), step = 12.5 us     (62.5 m%)
    pss: time = 2.512 ms    (12.6 %), step = 12.5 us     (62.5 m%)
    pss: time = 3.512 ms    (17.6 %), step = 12.5 us     (62.5 m%)
    pss: time = 4.5 ms      (22.5 %), step = 12.5 us     (62.5 m%)
    pss: time = 5.5 ms      (27.5 %), step = 12.5 us     (62.5 m%)
    pss: time = 6.5 ms      (32.5 %), step = 12.5 us     (62.5 m%)
    pss: time = 7.5 ms      (37.5 %), step = 12.5 us     (62.5 m%)
    pss: time = 8.5 ms      (42.5 %), step = 12.5 us     (62.5 m%)
    pss: time = 9.5 ms      (47.5 %), step = 12.5 us     (62.5 m%)
    pss: time = 10.5 ms     (52.5 %), step = 12.5 us     (62.5 m%)
    pss: time = 11.5 ms     (57.5 %), step = 12.5 us     (62.5 m%)
    pss: time = 12.5 ms     (62.5 %), step = 12.5 us     (62.5 m%)
    pss: time = 13.5 ms     (67.5 %), step = 12.5 us     (62.5 m%)
    pss: time = 14.5 ms     (72.5 %), step = 12.5 us     (62.5 m%)
    pss: time = 15.5 ms     (77.5 %), step = 12.5 us     (62.5 m%)
    pss: time = 16.5 ms     (82.5 %), step = 12.5 us     (62.5 m%)
    pss: time = 17.5 ms     (87.5 %), step = 12.5 us     (62.5 m%)
    pss: time = 18.5 ms     (92.5 %), step = 12.5 us     (62.5 m%)
    pss: time = 19.51 ms    (97.6 %), step = 12.5 us     (62.5 m%)
Conv norm = 721e-03, max dV(vout) = -71.3937 uV, took 400 ms.


Opening the PSF file ../psf/mc1_separate/082/pss.td.pss ...

Opening the PSF file ../psf/mc1_separate/082/pss.fd.pss ...

============================
`pss': time = (0 s -> 20 ms)
============================
    pss: time = 512.5 us    (2.56 %), step = 12.5 us     (62.5 m%)
    pss: time = 1.512 ms    (7.56 %), step = 12.5 us     (62.5 m%)
    pss: time = 2.512 ms    (12.6 %), step = 12.5 us     (62.5 m%)
    pss: time = 3.512 ms    (17.6 %), step = 12.5 us     (62.5 m%)
    pss: time = 4.5 ms      (22.5 %), step = 12.5 us     (62.5 m%)
    pss: time = 5.5 ms      (27.5 %), step = 12.5 us     (62.5 m%)
    pss: time = 6.5 ms      (32.5 %), step = 12.5 us     (62.5 m%)
    pss: time = 7.5 ms      (37.5 %), step = 12.5 us     (62.5 m%)
    pss: time = 8.5 ms      (42.5 %), step = 12.5 us     (62.5 m%)
    pss: time = 9.5 ms      (47.5 %), step = 12.5 us     (62.5 m%)
    pss: time = 10.5 ms     (52.5 %), step = 12.5 us     (62.5 m%)
    pss: time = 11.5 ms     (57.5 %), step = 12.5 us     (62.5 m%)
    pss: time = 12.5 ms     (62.5 %), step = 12.5 us     (62.5 m%)
    pss: time = 13.5 ms     (67.5 %), step = 12.5 us     (62.5 m%)
    pss: time = 14.5 ms     (72.5 %), step = 12.5 us     (62.5 m%)
    pss: time = 15.5 ms     (77.5 %), step = 12.5 us     (62.5 m%)
    pss: time = 16.5 ms     (82.5 %), step = 12.5 us     (62.5 m%)
    pss: time = 17.5 ms     (87.5 %), step = 12.5 us     (62.5 m%)
    pss: time = 18.5 ms     (92.5 %), step = 12.5 us     (62.5 m%)
    pss: time = 19.51 ms    (97.6 %), step = 12.5 us     (62.5 m%)

Maximum value achieved for any signal of each quantity: 
V: V(net2) = 3.3 V
I: I(V0:p) = 6.602 uA
Initial condition solution time: CPU = 2.708 ms, elapsed = 2.73585 ms.
pss: The steady-state solution was achieved in 2 iterations.
Number of accepted pss steps =             1600
Total time required for pss analysis `pss': CPU = 842.891 ms, elapsed = 866.915 ms, util. = 97.2%.
Time accumulated: CPU = 1.63815 s, elapsed = 2.3173 s.
Peak resident memory used = 224 Mbytes.

modelParameter: writing model parameter values to rawfile.

Opening the PSF file ../psf/mc1_separate/082/modelParameter.info ...
element: writing instance parameter values to rawfile.

Opening the PSF file ../psf/mc1_separate/082/element.info ...
outputParameter: writing output parameter values to rawfile.

Opening the PSF file ../psf/mc1_separate/082/outputParameter.info ...
designParamVals: writing netlist parameters to rawfile.

Opening the PSFASCII file ../psf/mc1_separate/082/designParamVals.info ...
primitives: writing primitives to rawfile.

Opening the PSFASCII file ../psf/mc1_separate/082/primitives.info.primitives ...
subckts: writing subcircuits to rawfile.

Opening the PSFASCII file ../psf/mc1_separate/082/subckts.info.subckts ...
83  12.50% 

*************************************************
Transient Analysis `tran': time = (0 s -> 100 ms)
*************************************************

Opening the PSF file ../psf/mc1_separate/083/tran.tran.tran ...

Notice from spectre during IC analysis, during transient analysis `tran', during Monte Carlo analysis `mc1'.
    Bad pivoting is found during DC analysis. Option dc_pivot_check=yes is recommended for possible improvement of convergence.
Warning from spectre during check, during IC analysis, during transient analysis `tran', during Monte Carlo analysis `mc1'.
    WARNING (CMI-2943): Parameter checks have been ignored because the valid value for parameter 'trise' could not be found in 'C1'.
    WARNING (CMI-2943): Parameter checks have been ignored because the valid value for parameter 'trise' could not be found in 'I0.C8<0>_turbo_m4.C1'.
    WARNING (CMI-2943): Parameter checks have been ignored because the valid value for parameter 'trise' could not be found in 'I0.C9<0>_turbo_m8.C1'.
    WARNING (CMI-2943): Parameter checks have been ignored because the valid value for parameter 'trise' could not be found in 'I0.C7<0>_turbo_m2.C1'.
    WARNING (CMI-2943): Parameter checks have been ignored because the valid value for parameter 'trise' could not be found in 'I0.R2.CM'.
        Further occurrences of this warning will be suppressed.

Convergence achieved in 19 iterations.
DC simulation time: CPU = 2.342 ms, elapsed = 2.34294 ms.
Important parameter values:
    start = 0 s
    outputstart = 0 s
    stop = 100 ms
    step = 100 us
    maxstep = 1 ms
    ic = all
    useprevic = no
    skipdc = no
    reltol = 100e-06
    abstol(V) = 1 uV
    abstol(I) = 1 pA
    temp = 27 C
    tnom = 27 C
    tempeffects = all
    errpreset = conservative_sigglobal
    method = gear2only
    lteratio = 10
    relref = sigglobal
    cmin = 0 F
    gmin = 1 pS
    rabsshort = 1 mOhm


Notice from spectre during transient analysis `tran', during Monte Carlo analysis `mc1'.
    Multithreading is disabled due to the size of the design being too small.


Output and IC/nodeset summary:
                 save   7       (current)
                 save   32      (voltage)

    tran: time = 2.908 ms    (2.91 %), step = 934.5 us     (934 m%)
    tran: time = 7.845 ms    (7.85 %), step = 1 ms            (1 %)
    tran: time = 13.29 ms    (13.3 %), step = 871.1 us     (871 m%)
    tran: time = 18.21 ms    (18.2 %), step = 1 ms            (1 %)
    tran: time = 22.73 ms    (22.7 %), step = 854.7 us     (855 m%)
    tran: time = 27.56 ms    (27.6 %), step = 1 ms            (1 %)
    tran: time = 33.04 ms      (33 %), step = 862.7 us     (863 m%)
    tran: time = 37.92 ms    (37.9 %), step = 1 ms            (1 %)
    tran: time = 43.36 ms    (43.4 %), step = 873.4 us     (873 m%)
    tran: time = 48.28 ms    (48.3 %), step = 1 ms            (1 %)
    tran: time = 52.79 ms    (52.8 %), step = 856 us       (856 m%)
    tran: time = 57.62 ms    (57.6 %), step = 1 ms            (1 %)
    tran: time = 63.1 ms     (63.1 %), step = 864.5 us     (865 m%)
    tran: time = 67.99 ms      (68 %), step = 1 ms            (1 %)
    tran: time = 72.54 ms    (72.5 %), step = 851 us       (851 m%)
    tran: time = 78.34 ms    (78.3 %), step = 1 ms            (1 %)
    tran: time = 82.85 ms    (82.8 %), step = 857.4 us     (857 m%)
    tran: time = 87.69 ms    (87.7 %), step = 1 ms            (1 %)
    tran: time = 93.17 ms    (93.2 %), step = 866.5 us     (867 m%)
    tran: time = 98.06 ms    (98.1 %), step = 1 ms            (1 %)
Number of accepted tran steps =             112

Maximum value achieved for any signal of each quantity: 
V: V(net2) = 3.3 V
I: I(V0:p) = 6.317 uA

~~~~~~~~~~~~~~~~~~~~~~~~~~~~~~~~~
Post-Transient Simulation Summary
~~~~~~~~~~~~~~~~~~~~~~~~~~~~~~~~~
   -   Non-default settings that could significantly slow down simulation
          errpreset = conservative_sigglobal, default moderate
~~~~~~~~~~~~~~~~~~~~~~~~~~~~~~~~~


During simulation, the CPU load for active processors is :
         0 (50.6 %)      1 (100.0 %)     2 (52.4 %)      3 (46.8 %)
         4 (54.3 %)      5 (39.0 %)      6 (66.2 %)      7 (60.8 %)
         8 (78.3 %)      9 (52.4 %)     10 (63.1 %)     11 (59.7 %)
        12 (50.9 %)     13 (55.7 %)     14 (54.9 %)     15 (67.0 %)
        16 (66.7 %)     17 (54.7 %)     18 (43.1 %)     19 (51.1 %)
        20 (62.4 %)     21 (72.2 %)     22 (100.0 %)    23 (62.5 %)
        24 (45.2 %)     25 (69.3 %)     26 (57.2 %)     27 (80.6 %)
        28 (53.7 %)     29 (67.4 %)     30 (100.0 %)    31 (77.2 %)
        32 (50.2 %)     33 (36.4 %)     34 (62.5 %)     35 (68.8 %)
        36 (49.6 %)     37 (71.7 %)     38 (56.2 %)     39 (100.0 %)
        40 (44.1 %)     41 (33.6 %)     42 (79.0 %)     43 (58.8 %)
        44 (51.7 %)     45 (41.3 %)     46 (85.8 %)     47 (60.1 %)
        Total: 2965.1%
Initial condition solution time: CPU = 2.381 ms, elapsed = 2.38299 ms.
Intrinsic tran analysis time:    CPU = 21.763 ms, elapsed = 22.9871 ms.
Total time required for tran analysis `tran': CPU = 26.383 ms, elapsed = 28.2221 ms, util. = 93.5%.
Time accumulated: CPU = 1.70039 s, elapsed = 2.39118 s.
Peak resident memory used = 224 Mbytes.


Notice from spectre during transient analysis `tran', during Monte Carlo analysis `mc1'.
    12 warnings suppressed.

finalTimeOP: writing operating point information to rawfile.

Opening the PSF file ../psf/mc1_separate/083/finalTimeOP.info ...
Licensing Information:
[12:39:04.355808] Periodic Lic check successful


**************************************************
Periodic Steady-State Analysis `pss': fund = 50 Hz
**************************************************

Warning from spectre during check, during IC analysis, during periodic steady state analysis `pss', during Monte Carlo analysis `mc1'.
    WARNING (CMI-2943): Parameter checks have been ignored because the valid value for parameter 'trise' could not be found in 'C1'.
    WARNING (CMI-2943): Parameter checks have been ignored because the valid value for parameter 'trise' could not be found in 'I0.C8<0>_turbo_m4.C1'.
    WARNING (CMI-2943): Parameter checks have been ignored because the valid value for parameter 'trise' could not be found in 'I0.C9<0>_turbo_m8.C1'.
    WARNING (CMI-2943): Parameter checks have been ignored because the valid value for parameter 'trise' could not be found in 'I0.C7<0>_turbo_m2.C1'.
    WARNING (CMI-2943): Parameter checks have been ignored because the valid value for parameter 'trise' could not be found in 'I0.R2.CM'.
        Further occurrences of this warning will be suppressed.

Convergence achieved in 19 iterations.
DC simulation time: CPU = 2.437 ms, elapsed = 2.44498 ms.

==================================
pss `tstab': time = (0 s -> 20 ms)
==================================

Output and IC/nodeset summary:
                 save   7       (current)
                 save   32      (voltage)

Important parameter values in tstab integration:
    start = 0 s
    outputstart = 0 s
    stop = 20 ms
    period = 20 ms
    maxperiods = 20
    step = 20 us
    maxstep = 800 us
    ic = all
    useprevic = no
    skipdc = no
    reltol = 1e-03
    abstol(V) = 1 uV
    abstol(I) = 1 pA
    temp = 27 C
    tnom = 27 C
    tempeffects = all
    method = traponly
    lteratio = 3.5
    relref = sigglobal
    cmin = 0 F
    gmin = 1 pS
    rabsshort = 1 mOhm

    pss: time = 519.8 us     (2.6 %), step = 262.8 us     (1.31 %)
    pss: time = 2.196 ms      (11 %), step = 800 us          (4 %)
    pss: time = 2.996 ms      (15 %), step = 800 us          (4 %)
    pss: time = 3.796 ms      (19 %), step = 800 us          (4 %)
    pss: time = 4.596 ms      (23 %), step = 800 us          (4 %)
    pss: time = 6.196 ms      (31 %), step = 800 us          (4 %)
    pss: time = 6.996 ms      (35 %), step = 800 us          (4 %)
    pss: time = 7.796 ms      (39 %), step = 800 us          (4 %)
    pss: time = 8.596 ms      (43 %), step = 800 us          (4 %)
    pss: time = 10.2 ms       (51 %), step = 800 us          (4 %)
    pss: time = 11 ms         (55 %), step = 800 us          (4 %)
    pss: time = 11.8 ms       (59 %), step = 800 us          (4 %)
    pss: time = 12.6 ms       (63 %), step = 800 us          (4 %)
    pss: time = 14.2 ms       (71 %), step = 800 us          (4 %)
    pss: time = 15 ms         (75 %), step = 800 us          (4 %)
    pss: time = 15.8 ms       (79 %), step = 800 us          (4 %)
    pss: time = 16.6 ms       (83 %), step = 800 us          (4 %)
    pss: time = 18.2 ms       (91 %), step = 800 us          (4 %)
    pss: time = 19 ms         (95 %), step = 800 us          (4 %)
    pss: time = 20 ms        (100 %), step = 502.1 us     (2.51 %)
Total time required for tstab analysis `pss': CPU = 6.219 ms, elapsed = 6.21796 ms.
Time accumulated: CPU = 1.72462 s, elapsed = 2.4298 s.
Peak resident memory used = 224 Mbytes.

Conv norm = 29.7, max dV(vout_filt) = -10.2275 mV, took 10 ms.

Important parameter values in pss iteration:
    start = 0 s
    outputstart = 0 s
    stop = 20 ms
    period = 20 ms
    maxperiods = 20
    steadyratio = 10e-03
    step = 20 us
    maxstep = 100 us
    ic = all
    useprevic = no
    skipdc = no
    reltol = 100e-06
    abstol(V) = 1 uV
    abstol(I) = 1 pA
    temp = 27 C
    tnom = 27 C
    tempeffects = all
    errpreset = conservative
    method = gear2only
    lteratio = 10
    relref = sigglobal
    cmin = 0 F
    gmin = 1 pS
    rabsshort = 1 mOhm


Notice from spectre during periodic steady state analysis `pss', during Monte Carlo analysis `mc1'.
    12 warnings suppressed.


============================
`pss': time = (0 s -> 20 ms)
============================
    pss: time = 512.5 us    (2.56 %), step = 12.5 us     (62.5 m%)
    pss: time = 1.512 ms    (7.56 %), step = 12.5 us     (62.5 m%)
    pss: time = 2.512 ms    (12.6 %), step = 12.5 us     (62.5 m%)
    pss: time = 3.512 ms    (17.6 %), step = 12.5 us     (62.5 m%)
    pss: time = 4.5 ms      (22.5 %), step = 12.5 us     (62.5 m%)
    pss: time = 5.5 ms      (27.5 %), step = 12.5 us     (62.5 m%)
    pss: time = 6.5 ms      (32.5 %), step = 12.5 us     (62.5 m%)
    pss: time = 7.5 ms      (37.5 %), step = 12.5 us     (62.5 m%)
    pss: time = 8.5 ms      (42.5 %), step = 12.5 us     (62.5 m%)
    pss: time = 9.5 ms      (47.5 %), step = 12.5 us     (62.5 m%)
    pss: time = 10.5 ms     (52.5 %), step = 12.5 us     (62.5 m%)
    pss: time = 11.5 ms     (57.5 %), step = 12.5 us     (62.5 m%)
    pss: time = 12.5 ms     (62.5 %), step = 12.5 us     (62.5 m%)
    pss: time = 13.5 ms     (67.5 %), step = 12.5 us     (62.5 m%)
    pss: time = 14.5 ms     (72.5 %), step = 12.5 us     (62.5 m%)
    pss: time = 15.5 ms     (77.5 %), step = 12.5 us     (62.5 m%)
    pss: time = 16.5 ms     (82.5 %), step = 12.5 us     (62.5 m%)
    pss: time = 17.5 ms     (87.5 %), step = 12.5 us     (62.5 m%)
    pss: time = 18.5 ms     (92.5 %), step = 12.5 us     (62.5 m%)
    pss: time = 19.51 ms    (97.6 %), step = 12.5 us     (62.5 m%)
Conv norm = 206e-03, max dV(vout_filt) = 20.3911 uV, took 390 ms.


Opening the PSF file ../psf/mc1_separate/083/pss.td.pss ...

Opening the PSF file ../psf/mc1_separate/083/pss.fd.pss ...

============================
`pss': time = (0 s -> 20 ms)
============================
    pss: time = 512.5 us    (2.56 %), step = 12.5 us     (62.5 m%)
    pss: time = 1.512 ms    (7.56 %), step = 12.5 us     (62.5 m%)
    pss: time = 2.512 ms    (12.6 %), step = 12.5 us     (62.5 m%)
    pss: time = 3.512 ms    (17.6 %), step = 12.5 us     (62.5 m%)
    pss: time = 4.5 ms      (22.5 %), step = 12.5 us     (62.5 m%)
    pss: time = 5.5 ms      (27.5 %), step = 12.5 us     (62.5 m%)
    pss: time = 6.5 ms      (32.5 %), step = 12.5 us     (62.5 m%)
    pss: time = 7.5 ms      (37.5 %), step = 12.5 us     (62.5 m%)
    pss: time = 8.5 ms      (42.5 %), step = 12.5 us     (62.5 m%)
    pss: time = 9.5 ms      (47.5 %), step = 12.5 us     (62.5 m%)
    pss: time = 10.5 ms     (52.5 %), step = 12.5 us     (62.5 m%)
    pss: time = 11.5 ms     (57.5 %), step = 12.5 us     (62.5 m%)
    pss: time = 12.5 ms     (62.5 %), step = 12.5 us     (62.5 m%)
    pss: time = 13.5 ms     (67.5 %), step = 12.5 us     (62.5 m%)
    pss: time = 14.5 ms     (72.5 %), step = 12.5 us     (62.5 m%)
    pss: time = 15.5 ms     (77.5 %), step = 12.5 us     (62.5 m%)
    pss: time = 16.5 ms     (82.5 %), step = 12.5 us     (62.5 m%)
    pss: time = 17.5 ms     (87.5 %), step = 12.5 us     (62.5 m%)
    pss: time = 18.5 ms     (92.5 %), step = 12.5 us     (62.5 m%)
    pss: time = 19.51 ms    (97.6 %), step = 12.5 us     (62.5 m%)

Maximum value achieved for any signal of each quantity: 
V: V(net2) = 3.3 V
I: I(V0:p) = 6.317 uA
Initial condition solution time: CPU = 2.489 ms, elapsed = 2.49887 ms.
pss: The steady-state solution was achieved in 2 iterations.
Number of accepted pss steps =             1600
Total time required for pss analysis `pss': CPU = 832.093 ms, elapsed = 848.016 ms, util. = 98.1%.
Time accumulated: CPU = 2.53749 s, elapsed = 3.24633 s.
Peak resident memory used = 225 Mbytes.

modelParameter: writing model parameter values to rawfile.

Opening the PSF file ../psf/mc1_separate/083/modelParameter.info ...
element: writing instance parameter values to rawfile.

Opening the PSF file ../psf/mc1_separate/083/element.info ...
outputParameter: writing output parameter values to rawfile.

Opening the PSF file ../psf/mc1_separate/083/outputParameter.info ...
designParamVals: writing netlist parameters to rawfile.

Opening the PSFASCII file ../psf/mc1_separate/083/designParamVals.info ...
primitives: writing primitives to rawfile.

Opening the PSFASCII file ../psf/mc1_separate/083/primitives.info.primitives ...
subckts: writing subcircuits to rawfile.

Opening the PSFASCII file ../psf/mc1_separate/083/subckts.info.subckts ...
    mc1: iteration = 83          (12.5 %), step = 1            (12.5 %)
84  25.00% 

*************************************************
Transient Analysis `tran': time = (0 s -> 100 ms)
*************************************************

Opening the PSF file ../psf/mc1_separate/084/tran.tran.tran ...

Notice from spectre during IC analysis, during transient analysis `tran', during Monte Carlo analysis `mc1'.
    Bad pivoting is found during DC analysis. Option dc_pivot_check=yes is recommended for possible improvement of convergence.
Warning from spectre during check, during IC analysis, during transient analysis `tran', during Monte Carlo analysis `mc1'.
    WARNING (CMI-2943): Parameter checks have been ignored because the valid value for parameter 'trise' could not be found in 'C1'.
    WARNING (CMI-2943): Parameter checks have been ignored because the valid value for parameter 'trise' could not be found in 'I0.C8<0>_turbo_m4.C1'.
    WARNING (CMI-2943): Parameter checks have been ignored because the valid value for parameter 'trise' could not be found in 'I0.C9<0>_turbo_m8.C1'.
    WARNING (CMI-2943): Parameter checks have been ignored because the valid value for parameter 'trise' could not be found in 'I0.C7<0>_turbo_m2.C1'.
    WARNING (CMI-2943): Parameter checks have been ignored because the valid value for parameter 'trise' could not be found in 'I0.R2.CM'.
        Further occurrences of this warning will be suppressed.

Convergence achieved in 18 iterations.
DC simulation time: CPU = 2.278 ms, elapsed = 2.27785 ms.
Important parameter values:
    start = 0 s
    outputstart = 0 s
    stop = 100 ms
    step = 100 us
    maxstep = 1 ms
    ic = all
    useprevic = no
    skipdc = no
    reltol = 100e-06
    abstol(V) = 1 uV
    abstol(I) = 1 pA
    temp = 27 C
    tnom = 27 C
    tempeffects = all
    errpreset = conservative_sigglobal
    method = gear2only
    lteratio = 10
    relref = sigglobal
    cmin = 0 F
    gmin = 1 pS
    rabsshort = 1 mOhm


Notice from spectre during transient analysis `tran', during Monte Carlo analysis `mc1'.
    Multithreading is disabled due to the size of the design being too small.


Output and IC/nodeset summary:
                 save   7       (current)
                 save   32      (voltage)

    tran: time = 2.905 ms    (2.91 %), step = 933.1 us     (933 m%)
    tran: time = 7.842 ms    (7.84 %), step = 1 ms            (1 %)
    tran: time = 13.29 ms    (13.3 %), step = 871 us       (871 m%)
    tran: time = 18.21 ms    (18.2 %), step = 1 ms            (1 %)
    tran: time = 22.73 ms    (22.7 %), step = 854.6 us     (855 m%)
    tran: time = 27.56 ms    (27.6 %), step = 1 ms            (1 %)
    tran: time = 33.04 ms      (33 %), step = 862.6 us     (863 m%)
    tran: time = 37.91 ms    (37.9 %), step = 1 ms            (1 %)
    tran: time = 43.35 ms    (43.4 %), step = 873.3 us     (873 m%)
    tran: time = 48.27 ms    (48.3 %), step = 1 ms            (1 %)
    tran: time = 52.79 ms    (52.8 %), step = 855.9 us     (856 m%)
    tran: time = 57.62 ms    (57.6 %), step = 1 ms            (1 %)
    tran: time = 63.1 ms     (63.1 %), step = 864.4 us     (864 m%)
    tran: time = 67.99 ms      (68 %), step = 1 ms            (1 %)
    tran: time = 72.54 ms    (72.5 %), step = 851 us       (851 m%)
    tran: time = 78.34 ms    (78.3 %), step = 1 ms            (1 %)
    tran: time = 82.85 ms    (82.8 %), step = 857.3 us     (857 m%)
    tran: time = 87.69 ms    (87.7 %), step = 1 ms            (1 %)
    tran: time = 93.16 ms    (93.2 %), step = 866.4 us     (866 m%)
    tran: time = 98.06 ms    (98.1 %), step = 1 ms            (1 %)
Number of accepted tran steps =             112

Maximum value achieved for any signal of each quantity: 
V: V(net2) = 3.3 V
I: I(V0:p) = 6.457 uA

~~~~~~~~~~~~~~~~~~~~~~~~~~~~~~~~~
Post-Transient Simulation Summary
~~~~~~~~~~~~~~~~~~~~~~~~~~~~~~~~~
   -   Non-default settings that could significantly slow down simulation
          errpreset = conservative_sigglobal, default moderate
~~~~~~~~~~~~~~~~~~~~~~~~~~~~~~~~~


During simulation, the CPU load for active processors is :
         0 (49.8 %)      1 (100.0 %)     2 (50.3 %)      3 (44.7 %)
         4 (61.1 %)      5 (35.6 %)      6 (72.8 %)      7 (69.5 %)
         8 (69.3 %)      9 (55.6 %)     10 (62.0 %)     11 (61.5 %)
        12 (43.6 %)     13 (42.8 %)     14 (64.7 %)     15 (54.5 %)
        16 (67.5 %)     17 (66.6 %)     18 (37.4 %)     19 (65.1 %)
        20 (66.9 %)     21 (63.2 %)     22 (100.0 %)    23 (55.7 %)
        24 (43.1 %)     25 (59.3 %)     26 (49.8 %)     27 (76.8 %)
        28 (52.0 %)     29 (67.5 %)     30 (96.9 %)     31 (83.7 %)
        32 (49.7 %)     33 (45.9 %)     34 (63.4 %)     35 (61.5 %)
        36 (45.1 %)     37 (78.8 %)     38 (59.8 %)     39 (100.0 %)
        40 (43.3 %)     41 (29.7 %)     42 (78.7 %)     43 (60.9 %)
        44 (42.7 %)     45 (54.8 %)     46 (68.2 %)     47 (57.8 %)
        Total: 2929.8%
Initial condition solution time: CPU = 2.321 ms, elapsed = 2.32196 ms.
Intrinsic tran analysis time:    CPU = 22.186 ms, elapsed = 23.6821 ms.
Total time required for tran analysis `tran': CPU = 26.388 ms, elapsed = 28.4791 ms, util. = 92.7%.
Time accumulated: CPU = 2.59773 s, elapsed = 3.31927 s.
Peak resident memory used = 225 Mbytes.


Notice from spectre during transient analysis `tran', during Monte Carlo analysis `mc1'.
    12 warnings suppressed.

finalTimeOP: writing operating point information to rawfile.

Opening the PSF file ../psf/mc1_separate/084/finalTimeOP.info ...
Licensing Information:
[12:39:05.284536] Periodic Lic check successful


**************************************************
Periodic Steady-State Analysis `pss': fund = 50 Hz
**************************************************

Notice from spectre during IC analysis, during periodic steady state analysis `pss', during Monte Carlo analysis `mc1'.
    Bad pivoting is found during DC analysis. Option dc_pivot_check=yes is recommended for possible improvement of convergence.
Warning from spectre during check, during IC analysis, during periodic steady state analysis `pss', during Monte Carlo analysis `mc1'.
    WARNING (CMI-2943): Parameter checks have been ignored because the valid value for parameter 'trise' could not be found in 'C1'.
    WARNING (CMI-2943): Parameter checks have been ignored because the valid value for parameter 'trise' could not be found in 'I0.C8<0>_turbo_m4.C1'.
    WARNING (CMI-2943): Parameter checks have been ignored because the valid value for parameter 'trise' could not be found in 'I0.C9<0>_turbo_m8.C1'.
    WARNING (CMI-2943): Parameter checks have been ignored because the valid value for parameter 'trise' could not be found in 'I0.C7<0>_turbo_m2.C1'.
    WARNING (CMI-2943): Parameter checks have been ignored because the valid value for parameter 'trise' could not be found in 'I0.R2.CM'.
        Further occurrences of this warning will be suppressed.

Convergence achieved in 18 iterations.
DC simulation time: CPU = 2.497 ms, elapsed = 2.49696 ms.

==================================
pss `tstab': time = (0 s -> 20 ms)
==================================

Output and IC/nodeset summary:
                 save   7       (current)
                 save   32      (voltage)

Important parameter values in tstab integration:
    start = 0 s
    outputstart = 0 s
    stop = 20 ms
    period = 20 ms
    maxperiods = 20
    step = 20 us
    maxstep = 800 us
    ic = all
    useprevic = no
    skipdc = no
    reltol = 1e-03
    abstol(V) = 1 uV
    abstol(I) = 1 pA
    temp = 27 C
    tnom = 27 C
    tempeffects = all
    method = traponly
    lteratio = 3.5
    relref = sigglobal
    cmin = 0 F
    gmin = 1 pS
    rabsshort = 1 mOhm

    pss: time = 504.2 us    (2.52 %), step = 253.8 us     (1.27 %)
    pss: time = 2.167 ms    (10.8 %), step = 800 us          (4 %)
    pss: time = 2.967 ms    (14.8 %), step = 800 us          (4 %)
    pss: time = 3.767 ms    (18.8 %), step = 800 us          (4 %)
    pss: time = 4.567 ms    (22.8 %), step = 800 us          (4 %)
    pss: time = 6.167 ms    (30.8 %), step = 800 us          (4 %)
    pss: time = 6.967 ms    (34.8 %), step = 800 us          (4 %)
    pss: time = 7.767 ms    (38.8 %), step = 800 us          (4 %)
    pss: time = 8.567 ms    (42.8 %), step = 800 us          (4 %)
    pss: time = 10.17 ms    (50.8 %), step = 800 us          (4 %)
    pss: time = 10.97 ms    (54.8 %), step = 800 us          (4 %)
    pss: time = 11.77 ms    (58.8 %), step = 800 us          (4 %)
    pss: time = 12.57 ms    (62.8 %), step = 800 us          (4 %)
    pss: time = 14.17 ms    (70.8 %), step = 800 us          (4 %)
    pss: time = 14.97 ms    (74.8 %), step = 800 us          (4 %)
    pss: time = 15.77 ms    (78.8 %), step = 800 us          (4 %)
    pss: time = 16.57 ms    (82.8 %), step = 800 us          (4 %)
    pss: time = 18.17 ms    (90.8 %), step = 800 us          (4 %)
    pss: time = 18.97 ms    (94.8 %), step = 800 us          (4 %)
    pss: time = 20 ms        (100 %), step = 516.4 us     (2.58 %)
Total time required for tstab analysis `pss': CPU = 6.098 ms, elapsed = 6.19006 ms.
Time accumulated: CPU = 2.61979 s, elapsed = 3.35811 s.
Peak resident memory used = 225 Mbytes.

Conv norm = 29.3, max dV(vout_filt) = -10.0935 mV, took 10 ms.

Important parameter values in pss iteration:
    start = 0 s
    outputstart = 0 s
    stop = 20 ms
    period = 20 ms
    maxperiods = 20
    steadyratio = 10e-03
    step = 20 us
    maxstep = 100 us
    ic = all
    useprevic = no
    skipdc = no
    reltol = 100e-06
    abstol(V) = 1 uV
    abstol(I) = 1 pA
    temp = 27 C
    tnom = 27 C
    tempeffects = all
    errpreset = conservative
    method = gear2only
    lteratio = 10
    relref = sigglobal
    cmin = 0 F
    gmin = 1 pS
    rabsshort = 1 mOhm


Notice from spectre during periodic steady state analysis `pss', during Monte Carlo analysis `mc1'.
    12 warnings suppressed.


============================
`pss': time = (0 s -> 20 ms)
============================
    pss: time = 512.5 us    (2.56 %), step = 12.5 us     (62.5 m%)
    pss: time = 1.512 ms    (7.56 %), step = 12.5 us     (62.5 m%)
    pss: time = 2.512 ms    (12.6 %), step = 12.5 us     (62.5 m%)
    pss: time = 3.512 ms    (17.6 %), step = 12.5 us     (62.5 m%)
    pss: time = 4.5 ms      (22.5 %), step = 12.5 us     (62.5 m%)
    pss: time = 5.5 ms      (27.5 %), step = 12.5 us     (62.5 m%)
    pss: time = 6.5 ms      (32.5 %), step = 12.5 us     (62.5 m%)
    pss: time = 7.5 ms      (37.5 %), step = 12.5 us     (62.5 m%)
    pss: time = 8.5 ms      (42.5 %), step = 12.5 us     (62.5 m%)
    pss: time = 9.5 ms      (47.5 %), step = 12.5 us     (62.5 m%)
    pss: time = 10.5 ms     (52.5 %), step = 12.5 us     (62.5 m%)
    pss: time = 11.5 ms     (57.5 %), step = 12.5 us     (62.5 m%)
    pss: time = 12.5 ms     (62.5 %), step = 12.5 us     (62.5 m%)
    pss: time = 13.5 ms     (67.5 %), step = 12.5 us     (62.5 m%)
    pss: time = 14.5 ms     (72.5 %), step = 12.5 us     (62.5 m%)
    pss: time = 15.5 ms     (77.5 %), step = 12.5 us     (62.5 m%)
    pss: time = 16.5 ms     (82.5 %), step = 12.5 us     (62.5 m%)
    pss: time = 17.5 ms     (87.5 %), step = 12.5 us     (62.5 m%)
    pss: time = 18.5 ms     (92.5 %), step = 12.5 us     (62.5 m%)
    pss: time = 19.51 ms    (97.6 %), step = 12.5 us     (62.5 m%)
Conv norm = 233e-03, max dV(vout_filt) = 23.0606 uV, took 370 ms.


Opening the PSF file ../psf/mc1_separate/084/pss.td.pss ...

Opening the PSF file ../psf/mc1_separate/084/pss.fd.pss ...

============================
`pss': time = (0 s -> 20 ms)
============================
    pss: time = 512.5 us    (2.56 %), step = 12.5 us     (62.5 m%)
    pss: time = 1.512 ms    (7.56 %), step = 12.5 us     (62.5 m%)
    pss: time = 2.512 ms    (12.6 %), step = 12.5 us     (62.5 m%)
    pss: time = 3.512 ms    (17.6 %), step = 12.5 us     (62.5 m%)
    pss: time = 4.5 ms      (22.5 %), step = 12.5 us     (62.5 m%)
    pss: time = 5.5 ms      (27.5 %), step = 12.5 us     (62.5 m%)
    pss: time = 6.5 ms      (32.5 %), step = 12.5 us     (62.5 m%)
    pss: time = 7.5 ms      (37.5 %), step = 12.5 us     (62.5 m%)
    pss: time = 8.5 ms      (42.5 %), step = 12.5 us     (62.5 m%)
    pss: time = 9.5 ms      (47.5 %), step = 12.5 us     (62.5 m%)
    pss: time = 10.5 ms     (52.5 %), step = 12.5 us     (62.5 m%)
    pss: time = 11.5 ms     (57.5 %), step = 12.5 us     (62.5 m%)
    pss: time = 12.5 ms     (62.5 %), step = 12.5 us     (62.5 m%)
    pss: time = 13.5 ms     (67.5 %), step = 12.5 us     (62.5 m%)
    pss: time = 14.5 ms     (72.5 %), step = 12.5 us     (62.5 m%)
    pss: time = 15.5 ms     (77.5 %), step = 12.5 us     (62.5 m%)
    pss: time = 16.5 ms     (82.5 %), step = 12.5 us     (62.5 m%)
    pss: time = 17.5 ms     (87.5 %), step = 12.5 us     (62.5 m%)
    pss: time = 18.5 ms     (92.5 %), step = 12.5 us     (62.5 m%)
    pss: time = 19.51 ms    (97.6 %), step = 12.5 us     (62.5 m%)

Maximum value achieved for any signal of each quantity: 
V: V(net2) = 3.3 V
I: I(V0:p) = 6.457 uA
Initial condition solution time: CPU = 2.57 ms, elapsed = 2.57301 ms.
pss: The steady-state solution was achieved in 2 iterations.
Number of accepted pss steps =             1600
Total time required for pss analysis `pss': CPU = 808.812 ms, elapsed = 826.853 ms, util. = 97.8%.
Time accumulated: CPU = 3.41169 s, elapsed = 4.15433 s.
Peak resident memory used = 225 Mbytes.

modelParameter: writing model parameter values to rawfile.

Opening the PSF file ../psf/mc1_separate/084/modelParameter.info ...
element: writing instance parameter values to rawfile.

Opening the PSF file ../psf/mc1_separate/084/element.info ...
outputParameter: writing output parameter values to rawfile.

Opening the PSF file ../psf/mc1_separate/084/outputParameter.info ...
designParamVals: writing netlist parameters to rawfile.

Opening the PSFASCII file ../psf/mc1_separate/084/designParamVals.info ...
primitives: writing primitives to rawfile.

Opening the PSFASCII file ../psf/mc1_separate/084/primitives.info.primitives ...
subckts: writing subcircuits to rawfile.

Opening the PSFASCII file ../psf/mc1_separate/084/subckts.info.subckts ...
    mc1: iteration = 84            (25 %), step = 1            (12.5 %)
85  37.50% 

*************************************************
Transient Analysis `tran': time = (0 s -> 100 ms)
*************************************************

Opening the PSF file ../psf/mc1_separate/085/tran.tran.tran ...

Notice from spectre during IC analysis, during transient analysis `tran', during Monte Carlo analysis `mc1'.
    Bad pivoting is found during DC analysis. Option dc_pivot_check=yes is recommended for possible improvement of convergence.
Warning from spectre during check, during IC analysis, during transient analysis `tran', during Monte Carlo analysis `mc1'.
    WARNING (CMI-2943): Parameter checks have been ignored because the valid value for parameter 'trise' could not be found in 'C1'.
    WARNING (CMI-2943): Parameter checks have been ignored because the valid value for parameter 'trise' could not be found in 'I0.C8<0>_turbo_m4.C1'.
    WARNING (CMI-2943): Parameter checks have been ignored because the valid value for parameter 'trise' could not be found in 'I0.C9<0>_turbo_m8.C1'.
    WARNING (CMI-2943): Parameter checks have been ignored because the valid value for parameter 'trise' could not be found in 'I0.C7<0>_turbo_m2.C1'.
    WARNING (CMI-2943): Parameter checks have been ignored because the valid value for parameter 'trise' could not be found in 'I0.R2.CM'.
        Further occurrences of this warning will be suppressed.

Convergence achieved in 18 iterations.
DC simulation time: CPU = 2.201 ms, elapsed = 2.20203 ms.
Important parameter values:
    start = 0 s
    outputstart = 0 s
    stop = 100 ms
    step = 100 us
    maxstep = 1 ms
    ic = all
    useprevic = no
    skipdc = no
    reltol = 100e-06
    abstol(V) = 1 uV
    abstol(I) = 1 pA
    temp = 27 C
    tnom = 27 C
    tempeffects = all
    errpreset = conservative_sigglobal
    method = gear2only
    lteratio = 10
    relref = sigglobal
    cmin = 0 F
    gmin = 1 pS
    rabsshort = 1 mOhm


Notice from spectre during transient analysis `tran', during Monte Carlo analysis `mc1'.
    Multithreading is disabled due to the size of the design being too small.


Output and IC/nodeset summary:
                 save   7       (current)
                 save   32      (voltage)

    tran: time = 2.908 ms    (2.91 %), step = 934.8 us     (935 m%)
    tran: time = 7.846 ms    (7.85 %), step = 1 ms            (1 %)
    tran: time = 13.29 ms    (13.3 %), step = 871.1 us     (871 m%)
    tran: time = 18.21 ms    (18.2 %), step = 1 ms            (1 %)
    tran: time = 22.73 ms    (22.7 %), step = 854.7 us     (855 m%)
    tran: time = 27.56 ms    (27.6 %), step = 1 ms            (1 %)
    tran: time = 33.04 ms      (33 %), step = 862.7 us     (863 m%)
    tran: time = 37.92 ms    (37.9 %), step = 1 ms            (1 %)
    tran: time = 43.35 ms    (43.4 %), step = 873.4 us     (873 m%)
    tran: time = 48.28 ms    (48.3 %), step = 1 ms            (1 %)
    tran: time = 52.79 ms    (52.8 %), step = 856 us       (856 m%)
    tran: time = 57.62 ms    (57.6 %), step = 1 ms            (1 %)
    tran: time = 63.1 ms     (63.1 %), step = 864.5 us     (864 m%)
    tran: time = 67.99 ms      (68 %), step = 1 ms            (1 %)
    tran: time = 72.54 ms    (72.5 %), step = 851 us       (851 m%)
    tran: time = 78.34 ms    (78.3 %), step = 1 ms            (1 %)
    tran: time = 82.85 ms    (82.8 %), step = 857.4 us     (857 m%)
    tran: time = 87.69 ms    (87.7 %), step = 1 ms            (1 %)
    tran: time = 93.16 ms    (93.2 %), step = 866.5 us     (866 m%)
    tran: time = 98.06 ms    (98.1 %), step = 1 ms            (1 %)
Number of accepted tran steps =             112

Maximum value achieved for any signal of each quantity: 
V: V(net2) = 3.3 V
I: I(V0:p) = 6.374 uA

~~~~~~~~~~~~~~~~~~~~~~~~~~~~~~~~~
Post-Transient Simulation Summary
~~~~~~~~~~~~~~~~~~~~~~~~~~~~~~~~~
   -   Non-default settings that could significantly slow down simulation
          errpreset = conservative_sigglobal, default moderate
~~~~~~~~~~~~~~~~~~~~~~~~~~~~~~~~~


During simulation, the CPU load for active processors is :
         0 (43.4 %)      1 (100.0 %)     2 (50.1 %)      3 (36.0 %)
         4 (52.8 %)      5 (31.9 %)      6 (75.8 %)      7 (68.4 %)
         8 (75.1 %)      9 (62.5 %)     10 (53.6 %)     11 (68.0 %)
        12 (43.1 %)     13 (38.7 %)     14 (57.8 %)     15 (58.0 %)
        16 (64.3 %)     17 (59.9 %)     18 (40.7 %)     19 (71.5 %)
        20 (73.3 %)     21 (59.1 %)     22 (100.0 %)    23 (49.3 %)
        24 (43.0 %)     25 (64.0 %)     26 (42.8 %)     27 (61.5 %)
        28 (46.0 %)     29 (74.6 %)     30 (80.7 %)     31 (87.2 %)
        32 (57.2 %)     33 (43.9 %)     34 (69.2 %)     35 (55.1 %)
        36 (47.3 %)     37 (73.7 %)     38 (65.4 %)     39 (100.0 %)
        40 (52.4 %)     41 (34.5 %)     42 (67.6 %)     43 (65.5 %)
        44 (35.6 %)     45 (55.6 %)     46 (55.4 %)     47 (46.5 %)
        Total: 2858.3%
Initial condition solution time: CPU = 2.238 ms, elapsed = 2.24113 ms.
Intrinsic tran analysis time:    CPU = 21.205 ms, elapsed = 22.413 ms.
Total time required for tran analysis `tran': CPU = 25.429 ms, elapsed = 27.2188 ms, util. = 93.4%.
Time accumulated: CPU = 3.47025 s, elapsed = 4.22558 s.
Peak resident memory used = 225 Mbytes.


Notice from spectre during transient analysis `tran', during Monte Carlo analysis `mc1'.
    12 warnings suppressed.

finalTimeOP: writing operating point information to rawfile.

Opening the PSF file ../psf/mc1_separate/085/finalTimeOP.info ...
Licensing Information:
[12:39:06.189233] Periodic Lic check successful


**************************************************
Periodic Steady-State Analysis `pss': fund = 50 Hz
**************************************************

Notice from spectre during IC analysis, during periodic steady state analysis `pss', during Monte Carlo analysis `mc1'.
    Bad pivoting is found during DC analysis. Option dc_pivot_check=yes is recommended for possible improvement of convergence.
Warning from spectre during check, during IC analysis, during periodic steady state analysis `pss', during Monte Carlo analysis `mc1'.
    WARNING (CMI-2943): Parameter checks have been ignored because the valid value for parameter 'trise' could not be found in 'C1'.
    WARNING (CMI-2943): Parameter checks have been ignored because the valid value for parameter 'trise' could not be found in 'I0.C8<0>_turbo_m4.C1'.
    WARNING (CMI-2943): Parameter checks have been ignored because the valid value for parameter 'trise' could not be found in 'I0.C9<0>_turbo_m8.C1'.
    WARNING (CMI-2943): Parameter checks have been ignored because the valid value for parameter 'trise' could not be found in 'I0.C7<0>_turbo_m2.C1'.
    WARNING (CMI-2943): Parameter checks have been ignored because the valid value for parameter 'trise' could not be found in 'I0.R2.CM'.
        Further occurrences of this warning will be suppressed.

Convergence achieved in 18 iterations.
DC simulation time: CPU = 2.323 ms, elapsed = 2.3241 ms.

==================================
pss `tstab': time = (0 s -> 20 ms)
==================================

Output and IC/nodeset summary:
                 save   7       (current)
                 save   32      (voltage)

Important parameter values in tstab integration:
    start = 0 s
    outputstart = 0 s
    stop = 20 ms
    period = 20 ms
    maxperiods = 20
    step = 20 us
    maxstep = 800 us
    ic = all
    useprevic = no
    skipdc = no
    reltol = 1e-03
    abstol(V) = 1 uV
    abstol(I) = 1 pA
    temp = 27 C
    tnom = 27 C
    tempeffects = all
    method = traponly
    lteratio = 3.5
    relref = sigglobal
    cmin = 0 F
    gmin = 1 pS
    rabsshort = 1 mOhm

    pss: time = 524.2 us    (2.62 %), step = 265.3 us     (1.33 %)
    pss: time = 2.204 ms      (11 %), step = 800 us          (4 %)
    pss: time = 3.004 ms      (15 %), step = 800 us          (4 %)
    pss: time = 3.804 ms      (19 %), step = 800 us          (4 %)
    pss: time = 4.604 ms      (23 %), step = 800 us          (4 %)
    pss: time = 6.204 ms      (31 %), step = 800 us          (4 %)
    pss: time = 7.004 ms      (35 %), step = 800 us          (4 %)
    pss: time = 7.804 ms      (39 %), step = 800 us          (4 %)
    pss: time = 8.604 ms      (43 %), step = 800 us          (4 %)
    pss: time = 10.2 ms       (51 %), step = 800 us          (4 %)
    pss: time = 11 ms         (55 %), step = 800 us          (4 %)
    pss: time = 11.8 ms       (59 %), step = 800 us          (4 %)
    pss: time = 12.6 ms       (63 %), step = 800 us          (4 %)
    pss: time = 14.2 ms       (71 %), step = 800 us          (4 %)
    pss: time = 15 ms         (75 %), step = 800 us          (4 %)
    pss: time = 15.8 ms       (79 %), step = 800 us          (4 %)
    pss: time = 16.6 ms       (83 %), step = 800 us          (4 %)
    pss: time = 18.2 ms       (91 %), step = 800 us          (4 %)
    pss: time = 19 ms         (95 %), step = 800 us          (4 %)
    pss: time = 19.5 ms     (97.5 %), step = 498.1 us     (2.49 %)
Total time required for tstab analysis `pss': CPU = 6.045 ms, elapsed = 6.0451 ms.
Time accumulated: CPU = 3.49148 s, elapsed = 4.2621 s.
Peak resident memory used = 225 Mbytes.

Conv norm = 29.8, max dV(vout_filt) = -10.2565 mV, took 0 s.

Important parameter values in pss iteration:
    start = 0 s
    outputstart = 0 s
    stop = 20 ms
    period = 20 ms
    maxperiods = 20
    steadyratio = 10e-03
    step = 20 us
    maxstep = 100 us
    ic = all
    useprevic = no
    skipdc = no
    reltol = 100e-06
    abstol(V) = 1 uV
    abstol(I) = 1 pA
    temp = 27 C
    tnom = 27 C
    tempeffects = all
    errpreset = conservative
    method = gear2only
    lteratio = 10
    relref = sigglobal
    cmin = 0 F
    gmin = 1 pS
    rabsshort = 1 mOhm


Notice from spectre during periodic steady state analysis `pss', during Monte Carlo analysis `mc1'.
    12 warnings suppressed.


============================
`pss': time = (0 s -> 20 ms)
============================
    pss: time = 512.5 us    (2.56 %), step = 12.5 us     (62.5 m%)
    pss: time = 1.512 ms    (7.56 %), step = 12.5 us     (62.5 m%)
    pss: time = 2.512 ms    (12.6 %), step = 12.5 us     (62.5 m%)
    pss: time = 3.512 ms    (17.6 %), step = 12.5 us     (62.5 m%)
    pss: time = 4.5 ms      (22.5 %), step = 12.5 us     (62.5 m%)
    pss: time = 5.5 ms      (27.5 %), step = 12.5 us     (62.5 m%)
    pss: time = 6.5 ms      (32.5 %), step = 12.5 us     (62.5 m%)
    pss: time = 7.5 ms      (37.5 %), step = 12.5 us     (62.5 m%)
    pss: time = 8.5 ms      (42.5 %), step = 12.5 us     (62.5 m%)
    pss: time = 9.5 ms      (47.5 %), step = 12.5 us     (62.5 m%)
    pss: time = 10.5 ms     (52.5 %), step = 12.5 us     (62.5 m%)
    pss: time = 11.5 ms     (57.5 %), step = 12.5 us     (62.5 m%)
    pss: time = 12.5 ms     (62.5 %), step = 12.5 us     (62.5 m%)
    pss: time = 13.5 ms     (67.5 %), step = 12.5 us     (62.5 m%)
    pss: time = 14.5 ms     (72.5 %), step = 12.5 us     (62.5 m%)
    pss: time = 15.5 ms     (77.5 %), step = 12.5 us     (62.5 m%)
    pss: time = 16.5 ms     (82.5 %), step = 12.5 us     (62.5 m%)
    pss: time = 17.5 ms     (87.5 %), step = 12.5 us     (62.5 m%)
    pss: time = 18.5 ms     (92.5 %), step = 12.5 us     (62.5 m%)
    pss: time = 19.51 ms    (97.6 %), step = 12.5 us     (62.5 m%)
Conv norm = 259e-03, max dV(vout_filt) = 25.5559 uV, took 390 ms.


Opening the PSF file ../psf/mc1_separate/085/pss.td.pss ...

Opening the PSF file ../psf/mc1_separate/085/pss.fd.pss ...

============================
`pss': time = (0 s -> 20 ms)
============================
    pss: time = 512.5 us    (2.56 %), step = 12.5 us     (62.5 m%)
    pss: time = 1.512 ms    (7.56 %), step = 12.5 us     (62.5 m%)
    pss: time = 2.512 ms    (12.6 %), step = 12.5 us     (62.5 m%)
    pss: time = 3.512 ms    (17.6 %), step = 12.5 us     (62.5 m%)
    pss: time = 4.5 ms      (22.5 %), step = 12.5 us     (62.5 m%)
    pss: time = 5.5 ms      (27.5 %), step = 12.5 us     (62.5 m%)
    pss: time = 6.5 ms      (32.5 %), step = 12.5 us     (62.5 m%)
    pss: time = 7.5 ms      (37.5 %), step = 12.5 us     (62.5 m%)
    pss: time = 8.5 ms      (42.5 %), step = 12.5 us     (62.5 m%)
    pss: time = 9.5 ms      (47.5 %), step = 12.5 us     (62.5 m%)
    pss: time = 10.5 ms     (52.5 %), step = 12.5 us     (62.5 m%)
    pss: time = 11.5 ms     (57.5 %), step = 12.5 us     (62.5 m%)
    pss: time = 12.5 ms     (62.5 %), step = 12.5 us     (62.5 m%)
    pss: time = 13.5 ms     (67.5 %), step = 12.5 us     (62.5 m%)
    pss: time = 14.5 ms     (72.5 %), step = 12.5 us     (62.5 m%)
    pss: time = 15.5 ms     (77.5 %), step = 12.5 us     (62.5 m%)
    pss: time = 16.5 ms     (82.5 %), step = 12.5 us     (62.5 m%)
    pss: time = 17.5 ms     (87.5 %), step = 12.5 us     (62.5 m%)
    pss: time = 18.5 ms     (92.5 %), step = 12.5 us     (62.5 m%)
    pss: time = 19.51 ms    (97.6 %), step = 12.5 us     (62.5 m%)

Maximum value achieved for any signal of each quantity: 
V: V(net2) = 3.3 V
I: I(V0:p) = 6.374 uA
Initial condition solution time: CPU = 2.364 ms, elapsed = 2.36607 ms.
pss: The steady-state solution was achieved in 2 iterations.
Number of accepted pss steps =             1600
Total time required for pss analysis `pss': CPU = 826.134 ms, elapsed = 844.42 ms, util. = 97.8%.
Time accumulated: CPU = 4.30136 s, elapsed = 5.07683 s.
Peak resident memory used = 225 Mbytes.

modelParameter: writing model parameter values to rawfile.

Opening the PSF file ../psf/mc1_separate/085/modelParameter.info ...
element: writing instance parameter values to rawfile.

Opening the PSF file ../psf/mc1_separate/085/element.info ...
outputParameter: writing output parameter values to rawfile.

Opening the PSF file ../psf/mc1_separate/085/outputParameter.info ...
designParamVals: writing netlist parameters to rawfile.

Opening the PSFASCII file ../psf/mc1_separate/085/designParamVals.info ...
primitives: writing primitives to rawfile.

Opening the PSFASCII file ../psf/mc1_separate/085/primitives.info.primitives ...
subckts: writing subcircuits to rawfile.

Opening the PSFASCII file ../psf/mc1_separate/085/subckts.info.subckts ...
    mc1: iteration = 85          (37.5 %), step = 1            (12.5 %)
86  50.00% 

*************************************************
Transient Analysis `tran': time = (0 s -> 100 ms)
*************************************************

Opening the PSF file ../psf/mc1_separate/086/tran.tran.tran ...

Notice from spectre during IC analysis, during transient analysis `tran', during Monte Carlo analysis `mc1'.
    Bad pivoting is found during DC analysis. Option dc_pivot_check=yes is recommended for possible improvement of convergence.
Warning from spectre during check, during IC analysis, during transient analysis `tran', during Monte Carlo analysis `mc1'.
    WARNING (CMI-2943): Parameter checks have been ignored because the valid value for parameter 'trise' could not be found in 'C1'.
    WARNING (CMI-2943): Parameter checks have been ignored because the valid value for parameter 'trise' could not be found in 'I0.C8<0>_turbo_m4.C1'.
    WARNING (CMI-2943): Parameter checks have been ignored because the valid value for parameter 'trise' could not be found in 'I0.C9<0>_turbo_m8.C1'.
    WARNING (CMI-2943): Parameter checks have been ignored because the valid value for parameter 'trise' could not be found in 'I0.C7<0>_turbo_m2.C1'.
    WARNING (CMI-2943): Parameter checks have been ignored because the valid value for parameter 'trise' could not be found in 'I0.R2.CM'.
        Further occurrences of this warning will be suppressed.

Convergence achieved in 17 iterations.
DC simulation time: CPU = 2.391 ms, elapsed = 2.39301 ms.
Important parameter values:
    start = 0 s
    outputstart = 0 s
    stop = 100 ms
    step = 100 us
    maxstep = 1 ms
    ic = all
    useprevic = no
    skipdc = no
    reltol = 100e-06
    abstol(V) = 1 uV
    abstol(I) = 1 pA
    temp = 27 C
    tnom = 27 C
    tempeffects = all
    errpreset = conservative_sigglobal
    method = gear2only
    lteratio = 10
    relref = sigglobal
    cmin = 0 F
    gmin = 1 pS
    rabsshort = 1 mOhm


Notice from spectre during transient analysis `tran', during Monte Carlo analysis `mc1'.
    Multithreading is disabled due to the size of the design being too small.


Output and IC/nodeset summary:
                 save   7       (current)
                 save   32      (voltage)

    tran: time = 2.899 ms     (2.9 %), step = 927.5 us     (927 m%)
    tran: time = 7.836 ms    (7.84 %), step = 1 ms            (1 %)
    tran: time = 13.29 ms    (13.3 %), step = 870.7 us     (871 m%)
    tran: time = 18.2 ms     (18.2 %), step = 1 ms            (1 %)
    tran: time = 22.72 ms    (22.7 %), step = 854.5 us     (854 m%)
    tran: time = 27.55 ms    (27.5 %), step = 1 ms            (1 %)
    tran: time = 33.04 ms      (33 %), step = 862.4 us     (862 m%)
    tran: time = 37.91 ms    (37.9 %), step = 1 ms            (1 %)
    tran: time = 43.35 ms    (43.3 %), step = 873 us       (873 m%)
    tran: time = 48.27 ms    (48.3 %), step = 1 ms            (1 %)
    tran: time = 52.78 ms    (52.8 %), step = 855.8 us     (856 m%)
    tran: time = 57.61 ms    (57.6 %), step = 1 ms            (1 %)
    tran: time = 63.1 ms     (63.1 %), step = 864.2 us     (864 m%)
    tran: time = 67.98 ms      (68 %), step = 1 ms            (1 %)
    tran: time = 72.53 ms    (72.5 %), step = 850.8 us     (851 m%)
    tran: time = 78.33 ms    (78.3 %), step = 1 ms            (1 %)
    tran: time = 82.84 ms    (82.8 %), step = 857.2 us     (857 m%)
    tran: time = 87.68 ms    (87.7 %), step = 1 ms            (1 %)
    tran: time = 93.16 ms    (93.2 %), step = 866.2 us     (866 m%)
    tran: time = 98.05 ms    (98.1 %), step = 1 ms            (1 %)
Number of accepted tran steps =             112

Maximum value achieved for any signal of each quantity: 
V: V(net2) = 3.3 V
I: I(V0:p) = 6.541 uA

~~~~~~~~~~~~~~~~~~~~~~~~~~~~~~~~~
Post-Transient Simulation Summary
~~~~~~~~~~~~~~~~~~~~~~~~~~~~~~~~~
   -   Non-default settings that could significantly slow down simulation
          errpreset = conservative_sigglobal, default moderate
~~~~~~~~~~~~~~~~~~~~~~~~~~~~~~~~~


During simulation, the CPU load for active processors is :
         0 (52.6 %)      1 (100.0 %)     2 (51.1 %)      3 (42.7 %)
         4 (55.9 %)      5 (37.9 %)      6 (74.4 %)      7 (60.2 %)
         8 (73.6 %)      9 (61.0 %)     10 (49.0 %)     11 (67.5 %)
        12 (40.7 %)     13 (40.0 %)     14 (48.9 %)     15 (59.3 %)
        16 (55.4 %)     17 (53.3 %)     18 (44.8 %)     19 (76.1 %)
        20 (75.0 %)     21 (57.6 %)     22 (100.0 %)    23 (48.6 %)
        24 (41.8 %)     25 (59.3 %)     26 (46.8 %)     27 (63.4 %)
        28 (42.2 %)     29 (66.3 %)     30 (77.0 %)     31 (89.6 %)
        32 (63.6 %)     33 (42.7 %)     34 (62.0 %)     35 (52.7 %)
        36 (53.8 %)     37 (66.9 %)     38 (58.3 %)     39 (100.0 %)
        40 (60.4 %)     41 (45.2 %)     42 (56.5 %)     43 (59.4 %)
        44 (31.7 %)     45 (48.6 %)     46 (59.1 %)     47 (43.7 %)
        Total: 2816.4%
Initial condition solution time: CPU = 2.432 ms, elapsed = 2.43306 ms.
Intrinsic tran analysis time:    CPU = 23.002 ms, elapsed = 24.7231 ms.
Total time required for tran analysis `tran': CPU = 27.621 ms, elapsed = 30.1919 ms, util. = 91.5%.
Time accumulated: CPU = 4.36496 s, elapsed = 5.15368 s.
Peak resident memory used = 225 Mbytes.


Notice from spectre during transient analysis `tran', during Monte Carlo analysis `mc1'.
    12 warnings suppressed.

finalTimeOP: writing operating point information to rawfile.

Opening the PSF file ../psf/mc1_separate/086/finalTimeOP.info ...
Licensing Information:
[12:39:07.118283] Periodic Lic check successful


**************************************************
Periodic Steady-State Analysis `pss': fund = 50 Hz
**************************************************

Warning from spectre during check, during IC analysis, during periodic steady state analysis `pss', during Monte Carlo analysis `mc1'.
    WARNING (CMI-2943): Parameter checks have been ignored because the valid value for parameter 'trise' could not be found in 'C1'.
    WARNING (CMI-2943): Parameter checks have been ignored because the valid value for parameter 'trise' could not be found in 'I0.C8<0>_turbo_m4.C1'.
    WARNING (CMI-2943): Parameter checks have been ignored because the valid value for parameter 'trise' could not be found in 'I0.C9<0>_turbo_m8.C1'.
    WARNING (CMI-2943): Parameter checks have been ignored because the valid value for parameter 'trise' could not be found in 'I0.C7<0>_turbo_m2.C1'.
    WARNING (CMI-2943): Parameter checks have been ignored because the valid value for parameter 'trise' could not be found in 'I0.R2.CM'.
        Further occurrences of this warning will be suppressed.

Convergence achieved in 17 iterations.
DC simulation time: CPU = 2.416 ms, elapsed = 2.4159 ms.

==================================
pss `tstab': time = (0 s -> 20 ms)
==================================

Output and IC/nodeset summary:
                 save   7       (current)
                 save   32      (voltage)

Important parameter values in tstab integration:
    start = 0 s
    outputstart = 0 s
    stop = 20 ms
    period = 20 ms
    maxperiods = 20
    step = 20 us
    maxstep = 800 us
    ic = all
    useprevic = no
    skipdc = no
    reltol = 1e-03
    abstol(V) = 1 uV
    abstol(I) = 1 pA
    temp = 27 C
    tnom = 27 C
    tempeffects = all
    method = traponly
    lteratio = 3.5
    relref = sigglobal
    cmin = 0 F
    gmin = 1 pS
    rabsshort = 1 mOhm

    pss: time = 766.7 us    (3.83 %), step = 320.2 us      (1.6 %)
    pss: time = 2.068 ms    (10.3 %), step = 800 us          (4 %)
    pss: time = 2.868 ms    (14.3 %), step = 800 us          (4 %)
    pss: time = 3.668 ms    (18.3 %), step = 800 us          (4 %)
    pss: time = 5.268 ms    (26.3 %), step = 800 us          (4 %)
    pss: time = 6.068 ms    (30.3 %), step = 800 us          (4 %)
    pss: time = 6.868 ms    (34.3 %), step = 800 us          (4 %)
    pss: time = 7.668 ms    (38.3 %), step = 800 us          (4 %)
[...]
Time accumulated: CPU = 7.09329 s, elapsed = 8.0012 s.
Peak resident memory used = 225 Mbytes.

Conv norm = 29.8, max dV(vout_filt) = -10.2622 mV, took 10 ms.

Important parameter values in pss iteration:
    start = 0 s
    outputstart = 0 s
    stop = 20 ms
    period = 20 ms
    maxperiods = 20
    steadyratio = 10e-03
    step = 20 us
    maxstep = 100 us
    ic = all
    useprevic = no
    skipdc = no
    reltol = 100e-06
    abstol(V) = 1 uV
    abstol(I) = 1 pA
    temp = 27 C
    tnom = 27 C
    tempeffects = all
    errpreset = conservative
    method = gear2only
    lteratio = 10
    relref = sigglobal
    cmin = 0 F
    gmin = 1 pS
    rabsshort = 1 mOhm


Notice from spectre during periodic steady state analysis `pss', during Monte Carlo analysis `mc1'.
    12 warnings suppressed.


============================
`pss': time = (0 s -> 20 ms)
============================
    pss: time = 512.5 us    (2.56 %), step = 12.5 us     (62.5 m%)
    pss: time = 1.512 ms    (7.56 %), step = 12.5 us     (62.5 m%)
    pss: time = 2.512 ms    (12.6 %), step = 12.5 us     (62.5 m%)
    pss: time = 3.512 ms    (17.6 %), step = 12.5 us     (62.5 m%)
    pss: time = 4.5 ms      (22.5 %), step = 12.5 us     (62.5 m%)
    pss: time = 5.5 ms      (27.5 %), step = 12.5 us     (62.5 m%)
    pss: time = 6.5 ms      (32.5 %), step = 12.5 us     (62.5 m%)
    pss: time = 7.5 ms      (37.5 %), step = 12.5 us     (62.5 m%)
    pss: time = 8.5 ms      (42.5 %), step = 12.5 us     (62.5 m%)
    pss: time = 9.5 ms      (47.5 %), step = 12.5 us     (62.5 m%)
    pss: time = 10.5 ms     (52.5 %), step = 12.5 us     (62.5 m%)
    pss: time = 11.5 ms     (57.5 %), step = 12.5 us     (62.5 m%)
    pss: time = 12.5 ms     (62.5 %), step = 12.5 us     (62.5 m%)
    pss: time = 13.5 ms     (67.5 %), step = 12.5 us     (62.5 m%)
    pss: time = 14.5 ms     (72.5 %), step = 12.5 us     (62.5 m%)
    pss: time = 15.5 ms     (77.5 %), step = 12.5 us     (62.5 m%)
    pss: time = 16.5 ms     (82.5 %), step = 12.5 us     (62.5 m%)
    pss: time = 17.5 ms     (87.5 %), step = 12.5 us     (62.5 m%)
    pss: time = 18.5 ms     (92.5 %), step = 12.5 us     (62.5 m%)
    pss: time = 19.51 ms    (97.6 %), step = 12.5 us     (62.5 m%)
Conv norm = 266e-03, max dV(vout_filt) = 26.2959 uV, took 370 ms.


Opening the PSF file ../psf/mc1_separate/089/pss.td.pss ...

Opening the PSF file ../psf/mc1_separate/089/pss.fd.pss ...

============================
`pss': time = (0 s -> 20 ms)
============================
    pss: time = 512.5 us    (2.56 %), step = 12.5 us     (62.5 m%)
    pss: time = 1.512 ms    (7.56 %), step = 12.5 us     (62.5 m%)
    pss: time = 2.512 ms    (12.6 %), step = 12.5 us     (62.5 m%)
    pss: time = 3.512 ms    (17.6 %), step = 12.5 us     (62.5 m%)
    pss: time = 4.5 ms      (22.5 %), step = 12.5 us     (62.5 m%)
    pss: time = 5.5 ms      (27.5 %), step = 12.5 us     (62.5 m%)
    pss: time = 6.5 ms      (32.5 %), step = 12.5 us     (62.5 m%)
    pss: time = 7.5 ms      (37.5 %), step = 12.5 us     (62.5 m%)
    pss: time = 8.5 ms      (42.5 %), step = 12.5 us     (62.5 m%)
    pss: time = 9.5 ms      (47.5 %), step = 12.5 us     (62.5 m%)
    pss: time = 10.5 ms     (52.5 %), step = 12.5 us     (62.5 m%)
    pss: time = 11.5 ms     (57.5 %), step = 12.5 us     (62.5 m%)
    pss: time = 12.5 ms     (62.5 %), step = 12.5 us     (62.5 m%)
    pss: time = 13.5 ms     (67.5 %), step = 12.5 us     (62.5 m%)
    pss: time = 14.5 ms     (72.5 %), step = 12.5 us     (62.5 m%)
    pss: time = 15.5 ms     (77.5 %), step = 12.5 us     (62.5 m%)
    pss: time = 16.5 ms     (82.5 %), step = 12.5 us     (62.5 m%)
    pss: time = 17.5 ms     (87.5 %), step = 12.5 us     (62.5 m%)
    pss: time = 18.5 ms     (92.5 %), step = 12.5 us     (62.5 m%)
    pss: time = 19.51 ms    (97.6 %), step = 12.5 us     (62.5 m%)

Maximum value achieved for any signal of each quantity: 
V: V(net2) = 3.3 V
I: I(V0:p) = 6.372 uA
Initial condition solution time: CPU = 2.413 ms, elapsed = 2.41518 ms.
pss: The steady-state solution was achieved in 2 iterations.
Number of accepted pss steps =             1600
Total time required for pss analysis `pss': CPU = 803.282 ms, elapsed = 821.298 ms, util. = 97.8%.
Time accumulated: CPU = 7.88015 s, elapsed = 8.79212 s.
Peak resident memory used = 225 Mbytes.

modelParameter: writing model parameter values to rawfile.

Opening the PSF file ../psf/mc1_separate/089/modelParameter.info ...
element: writing instance parameter values to rawfile.

Opening the PSF file ../psf/mc1_separate/089/element.info ...
outputParameter: writing output parameter values to rawfile.

Opening the PSF file ../psf/mc1_separate/089/outputParameter.info ...
designParamVals: writing netlist parameters to rawfile.

Opening the PSFASCII file ../psf/mc1_separate/089/designParamVals.info ...
primitives: writing primitives to rawfile.

Opening the PSFASCII file ../psf/mc1_separate/089/primitives.info.primitives ...
subckts: writing subcircuits to rawfile.

Opening the PSFASCII file ../psf/mc1_separate/089/subckts.info.subckts ...
    mc1: iteration = 89          (87.5 %), step = 1            (12.5 %)
90 100.00% 

*************************************************
Transient Analysis `tran': time = (0 s -> 100 ms)
*************************************************

Opening the PSF file ../psf/mc1_separate/090/tran.tran.tran ...

Notice from spectre during IC analysis, during transient analysis `tran', during Monte Carlo analysis `mc1'.
    Bad pivoting is found during DC analysis. Option dc_pivot_check=yes is recommended for possible improvement of convergence.
Warning from spectre during check, during IC analysis, during transient analysis `tran', during Monte Carlo analysis `mc1'.
    WARNING (CMI-2943): Parameter checks have been ignored because the valid value for parameter 'trise' could not be found in 'C1'.
    WARNING (CMI-2943): Parameter checks have been ignored because the valid value for parameter 'trise' could not be found in 'I0.C8<0>_turbo_m4.C1'.
    WARNING (CMI-2943): Parameter checks have been ignored because the valid value for parameter 'trise' could not be found in 'I0.C9<0>_turbo_m8.C1'.
    WARNING (CMI-2943): Parameter checks have been ignored because the valid value for parameter 'trise' could not be found in 'I0.C7<0>_turbo_m2.C1'.
    WARNING (CMI-2943): Parameter checks have been ignored because the valid value for parameter 'trise' could not be found in 'I0.R2.CM'.
        Further occurrences of this warning will be suppressed.

Convergence achieved in 19 iterations.
DC simulation time: CPU = 2.288 ms, elapsed = 2.28786 ms.
Important parameter values:
    start = 0 s
    outputstart = 0 s
    stop = 100 ms
    step = 100 us
    maxstep = 1 ms
    ic = all
    useprevic = no
    skipdc = no
    reltol = 100e-06
    abstol(V) = 1 uV
    abstol(I) = 1 pA
    temp = 27 C
    tnom = 27 C
    tempeffects = all
    errpreset = conservative_sigglobal
    method = gear2only
    lteratio = 10
    relref = sigglobal
    cmin = 0 F
    gmin = 1 pS
    rabsshort = 1 mOhm


Notice from spectre during transient analysis `tran', during Monte Carlo analysis `mc1'.
    Multithreading is disabled due to the size of the design being too small.


Output and IC/nodeset summary:
                 save   7       (current)
                 save   32      (voltage)

    tran: time = 2.908 ms    (2.91 %), step = 934.7 us     (935 m%)
    tran: time = 7.846 ms    (7.85 %), step = 1 ms            (1 %)
    tran: time = 13.29 ms    (13.3 %), step = 871.1 us     (871 m%)
    tran: time = 18.21 ms    (18.2 %), step = 1 ms            (1 %)
    tran: time = 22.73 ms    (22.7 %), step = 854.6 us     (855 m%)
    tran: time = 27.56 ms    (27.6 %), step = 1 ms            (1 %)
    tran: time = 33.04 ms      (33 %), step = 862.7 us     (863 m%)
    tran: time = 37.92 ms    (37.9 %), step = 1 ms            (1 %)
    tran: time = 43.35 ms    (43.4 %), step = 873.3 us     (873 m%)
    tran: time = 48.28 ms    (48.3 %), step = 1 ms            (1 %)
    tran: time = 52.79 ms    (52.8 %), step = 856 us       (856 m%)
    tran: time = 57.62 ms    (57.6 %), step = 1 ms            (1 %)
    tran: time = 63.1 ms     (63.1 %), step = 864.5 us     (864 m%)
    tran: time = 67.99 ms      (68 %), step = 1 ms            (1 %)
    tran: time = 72.54 ms    (72.5 %), step = 851 us       (851 m%)
    tran: time = 78.34 ms    (78.3 %), step = 1 ms            (1 %)
    tran: time = 82.85 ms    (82.8 %), step = 857.3 us     (857 m%)
    tran: time = 87.69 ms    (87.7 %), step = 1 ms            (1 %)
    tran: time = 93.16 ms    (93.2 %), step = 866.5 us     (866 m%)
    tran: time = 98.06 ms    (98.1 %), step = 1 ms            (1 %)
Number of accepted tran steps =             112

Maximum value achieved for any signal of each quantity: 
V: V(net2) = 3.3 V
I: I(V0:p) = 6.619 uA

~~~~~~~~~~~~~~~~~~~~~~~~~~~~~~~~~
Post-Transient Simulation Summary
~~~~~~~~~~~~~~~~~~~~~~~~~~~~~~~~~
   -   Non-default settings that could significantly slow down simulation
          errpreset = conservative_sigglobal, default moderate
~~~~~~~~~~~~~~~~~~~~~~~~~~~~~~~~~


During simulation, the CPU load for active processors is :
         0 (46.0 %)      1 (100.0 %)     2 (49.2 %)      3 (33.1 %)
         4 (55.0 %)      5 (49.9 %)      6 (51.5 %)      7 (40.1 %)
         8 (48.4 %)      9 (62.6 %)     10 (40.5 %)     11 (70.5 %)
        12 (29.8 %)     13 (47.1 %)     14 (38.3 %)     15 (36.6 %)
        16 (38.7 %)     17 (40.1 %)     18 (28.8 %)     19 (84.0 %)
        20 (54.7 %)     21 (38.6 %)     22 (99.9 %)     23 (51.4 %)
        24 (44.2 %)     25 (52.8 %)     26 (51.2 %)     27 (57.2 %)
        28 (37.1 %)     29 (49.1 %)     30 (53.2 %)     31 (94.0 %)
        32 (60.9 %)     33 (37.6 %)     34 (43.8 %)     35 (38.2 %)
        36 (52.2 %)     37 (52.5 %)     38 (38.9 %)     39 (100.0 %)
        40 (75.3 %)     41 (40.4 %)     42 (49.4 %)     43 (47.7 %)
        44 (24.7 %)     45 (32.4 %)     46 (66.5 %)     47 (36.6 %)
        Total: 2470.6%
Initial condition solution time: CPU = 2.34 ms, elapsed = 2.34222 ms.
Intrinsic tran analysis time:    CPU = 20.982 ms, elapsed = 22.1901 ms.
Total time required for tran analysis `tran': CPU = 25.311 ms, elapsed = 27.096 ms, util. = 93.4%.
Time accumulated: CPU = 7.94258 s, elapsed = 8.86581 s.
Peak resident memory used = 225 Mbytes.


Notice from spectre during transient analysis `tran', during Monte Carlo analysis `mc1'.
    12 warnings suppressed.

finalTimeOP: writing operating point information to rawfile.

Opening the PSF file ../psf/mc1_separate/090/finalTimeOP.info ...
Licensing Information:
[12:39:10.305298] Periodic Lic check successful


**************************************************
Periodic Steady-State Analysis `pss': fund = 50 Hz
**************************************************

Warning from spectre during check, during IC analysis, during periodic steady state analysis `pss', during Monte Carlo analysis `mc1'.
    WARNING (CMI-2943): Parameter checks have been ignored because the valid value for parameter 'trise' could not be found in 'C1'.
    WARNING (CMI-2943): Parameter checks have been ignored because the valid value for parameter 'trise' could not be found in 'I0.C8<0>_turbo_m4.C1'.
    WARNING (CMI-2943): Parameter checks have been ignored because the valid value for parameter 'trise' could not be found in 'I0.C9<0>_turbo_m8.C1'.
    WARNING (CMI-2943): Parameter checks have been ignored because the valid value for parameter 'trise' could not be found in 'I0.C7<0>_turbo_m2.C1'.
    WARNING (CMI-2943): Parameter checks have been ignored because the valid value for parameter 'trise' could not be found in 'I0.R2.CM'.
        Further occurrences of this warning will be suppressed.

Convergence achieved in 19 iterations.
DC simulation time: CPU = 1.996 ms, elapsed = 1.99699 ms.

==================================
pss `tstab': time = (0 s -> 20 ms)
==================================

Output and IC/nodeset summary:
                 save   7       (current)
                 save   32      (voltage)

Important parameter values in tstab integration:
    start = 0 s
    outputstart = 0 s
    stop = 20 ms
    period = 20 ms
    maxperiods = 20
    step = 20 us
    maxstep = 800 us
    ic = all
    useprevic = no
    skipdc = no
    reltol = 1e-03
    abstol(V) = 1 uV
    abstol(I) = 1 pA
    temp = 27 C
    tnom = 27 C
    tempeffects = all
    method = traponly
    lteratio = 3.5
    relref = sigglobal
    cmin = 0 F
    gmin = 1 pS
    rabsshort = 1 mOhm

    pss: time = 523.5 us    (2.62 %), step = 264.9 us     (1.32 %)
    pss: time = 2.203 ms      (11 %), step = 800 us          (4 %)
    pss: time = 3.003 ms      (15 %), step = 800 us          (4 %)
    pss: time = 3.803 ms      (19 %), step = 800 us          (4 %)
    pss: time = 4.603 ms      (23 %), step = 800 us          (4 %)
    pss: time = 6.203 ms      (31 %), step = 800 us          (4 %)
    pss: time = 7.003 ms      (35 %), step = 800 us          (4 %)
    pss: time = 7.803 ms      (39 %), step = 800 us          (4 %)
    pss: time = 8.603 ms      (43 %), step = 800 us          (4 %)
    pss: time = 10.2 ms       (51 %), step = 800 us          (4 %)
    pss: time = 11 ms         (55 %), step = 800 us          (4 %)
    pss: time = 11.8 ms       (59 %), step = 800 us          (4 %)
    pss: time = 12.6 ms       (63 %), step = 800 us          (4 %)
    pss: time = 14.2 ms       (71 %), step = 800 us          (4 %)
    pss: time = 15 ms         (75 %), step = 800 us          (4 %)
    pss: time = 15.8 ms       (79 %), step = 800 us          (4 %)
    pss: time = 16.6 ms       (83 %), step = 800 us          (4 %)
    pss: time = 18.2 ms       (91 %), step = 800 us          (4 %)
    pss: time = 19 ms         (95 %), step = 800 us          (4 %)
    pss: time = 19.5 ms     (97.5 %), step = 498.7 us     (2.49 %)
Total time required for tstab analysis `pss': CPU = 5.712 ms, elapsed = 5.71203 ms.
Time accumulated: CPU = 7.96257 s, elapsed = 8.90291 s.
Peak resident memory used = 225 Mbytes.

Conv norm = 29.8, max dV(vout_filt) = -10.2524 mV, took 0 s.

Important parameter values in pss iteration:
    start = 0 s
    outputstart = 0 s
    stop = 20 ms
    period = 20 ms
    maxperiods = 20
    steadyratio = 10e-03
    step = 20 us
    maxstep = 100 us
    ic = all
    useprevic = no
    skipdc = no
    reltol = 100e-06
    abstol(V) = 1 uV
    abstol(I) = 1 pA
    temp = 27 C
    tnom = 27 C
    tempeffects = all
    errpreset = conservative
    method = gear2only
    lteratio = 10
    relref = sigglobal
    cmin = 0 F
    gmin = 1 pS
    rabsshort = 1 mOhm


Notice from spectre during periodic steady state analysis `pss', during Monte Carlo analysis `mc1'.
    12 warnings suppressed.


============================
`pss': time = (0 s -> 20 ms)
============================
    pss: time = 512.5 us    (2.56 %), step = 12.5 us     (62.5 m%)
    pss: time = 1.512 ms    (7.56 %), step = 12.5 us     (62.5 m%)
    pss: time = 2.512 ms    (12.6 %), step = 12.5 us     (62.5 m%)
    pss: time = 3.512 ms    (17.6 %), step = 12.5 us     (62.5 m%)
    pss: time = 4.5 ms      (22.5 %), step = 12.5 us     (62.5 m%)
    pss: time = 5.5 ms      (27.5 %), step = 12.5 us     (62.5 m%)
    pss: time = 6.5 ms      (32.5 %), step = 12.5 us     (62.5 m%)
    pss: time = 7.5 ms      (37.5 %), step = 12.5 us     (62.5 m%)
    pss: time = 8.5 ms      (42.5 %), step = 12.5 us     (62.5 m%)
    pss: time = 9.5 ms      (47.5 %), step = 12.5 us     (62.5 m%)
    pss: time = 10.5 ms     (52.5 %), step = 12.5 us     (62.5 m%)
    pss: time = 11.5 ms     (57.5 %), step = 12.5 us     (62.5 m%)
    pss: time = 12.5 ms     (62.5 %), step = 12.5 us     (62.5 m%)
    pss: time = 13.5 ms     (67.5 %), step = 12.5 us     (62.5 m%)
    pss: time = 14.5 ms     (72.5 %), step = 12.5 us     (62.5 m%)
    pss: time = 15.5 ms     (77.5 %), step = 12.5 us     (62.5 m%)
    pss: time = 16.5 ms     (82.5 %), step = 12.5 us     (62.5 m%)
    pss: time = 17.5 ms     (87.5 %), step = 12.5 us     (62.5 m%)
    pss: time = 18.5 ms     (92.5 %), step = 12.5 us     (62.5 m%)
    pss: time = 19.51 ms    (97.6 %), step = 12.5 us     (62.5 m%)
Conv norm = 252e-03, max dV(vout_filt) = 24.8757 uV, took 380 ms.


Opening the PSF file ../psf/mc1_separate/090/pss.td.pss ...

Opening the PSF file ../psf/mc1_separate/090/pss.fd.pss ...

============================
`pss': time = (0 s -> 20 ms)
============================
    pss: time = 512.5 us    (2.56 %), step = 12.5 us     (62.5 m%)
    pss: time = 1.512 ms    (7.56 %), step = 12.5 us     (62.5 m%)
    pss: time = 2.512 ms    (12.6 %), step = 12.5 us     (62.5 m%)
    pss: time = 3.512 ms    (17.6 %), step = 12.5 us     (62.5 m%)
    pss: time = 4.5 ms      (22.5 %), step = 12.5 us     (62.5 m%)
    pss: time = 5.5 ms      (27.5 %), step = 12.5 us     (62.5 m%)
    pss: time = 6.5 ms      (32.5 %), step = 12.5 us     (62.5 m%)
    pss: time = 7.5 ms      (37.5 %), step = 12.5 us     (62.5 m%)
    pss: time = 8.5 ms      (42.5 %), step = 12.5 us     (62.5 m%)
    pss: time = 9.5 ms      (47.5 %), step = 12.5 us     (62.5 m%)
    pss: time = 10.5 ms     (52.5 %), step = 12.5 us     (62.5 m%)
    pss: time = 11.5 ms     (57.5 %), step = 12.5 us     (62.5 m%)
    pss: time = 12.5 ms     (62.5 %), step = 12.5 us     (62.5 m%)
    pss: time = 13.5 ms     (67.5 %), step = 12.5 us     (62.5 m%)
    pss: time = 14.5 ms     (72.5 %), step = 12.5 us     (62.5 m%)
    pss: time = 15.5 ms     (77.5 %), step = 12.5 us     (62.5 m%)
    pss: time = 16.5 ms     (82.5 %), step = 12.5 us     (62.5 m%)
    pss: time = 17.5 ms     (87.5 %), step = 12.5 us     (62.5 m%)
    pss: time = 18.5 ms     (92.5 %), step = 12.5 us     (62.5 m%)
    pss: time = 19.51 ms    (97.6 %), step = 12.5 us     (62.5 m%)

Maximum value achieved for any signal of each quantity: 
V: V(net2) = 3.3 V
I: I(V0:p) = 6.619 uA
Initial condition solution time: CPU = 2.057 ms, elapsed = 2.05994 ms.
pss: The steady-state solution was achieved in 2 iterations.
Number of accepted pss steps =             1600
Total time required for pss analysis `pss': CPU = 799.333 ms, elapsed = 818.09 ms, util. = 97.7%.
Time accumulated: CPU = 8.74626 s, elapsed = 9.69009 s.
Peak resident memory used = 225 Mbytes.

modelParameter: writing model parameter values to rawfile.

Opening the PSF file ../psf/mc1_separate/090/modelParameter.info ...
element: writing instance parameter values to rawfile.

Opening the PSF file ../psf/mc1_separate/090/element.info ...
outputParameter: writing output parameter values to rawfile.

Opening the PSF file ../psf/mc1_separate/090/outputParameter.info ...
designParamVals: writing netlist parameters to rawfile.

Opening the PSFASCII file ../psf/mc1_separate/090/designParamVals.info ...
primitives: writing primitives to rawfile.

Opening the PSFASCII file ../psf/mc1_separate/090/primitives.info.primitives ...
subckts: writing subcircuits to rawfile.

Opening the PSFASCII file ../psf/mc1_separate/090/subckts.info.subckts ...
    mc1: iteration = 90           (100 %), step = 1            (12.5 %)
Total time required for montecarlo analysis `mc1': CPU = 8.13264 s, elapsed = 8.44723 s, util. = 96.3%.
Time accumulated: CPU = 8.77067 s, elapsed = 9.72692 s.
Peak resident memory used = 226 Mbytes.

Licensing Information:
Lic Summary:
[12:39:11.149386] Cdslmd servers: lic08
[12:39:11.673712] Feature usage summary:
[12:39:11.673713] Virtuoso_Multi_mode_Simulation
[12:39:11.673714] Spectre_X_MMSIM_Lk


Aggregate audit (12:39:11 PM, Fri Apr 10, 2026):
Time used: CPU = 8.78 s, elapsed = 9.73 s, util. = 90.2%.
Time spent in licensing: elapsed = 364 ms.
Peak memory used = 226 Mbytes.
Simulation started at: 12:39:01 PM, Fri Apr 10, 2026, ended at: 12:39:11 PM, Fri Apr 10, 2026, with elapsed time (wall clock): 9.73 s.
spectre completes with 0 errors, 114 warnings, and 50 notices.
