
Spectre (R) Circuit Simulator
Version 24.1.0.288.isr5 64bit -- 3 Apr 2025
Copyright (C) 1989-2025 Cadence Design Systems, Inc. All rights reserved worldwide. Cadence and Spectre are registered trademarks of Cadence Design Systems, Inc. All others are the property of their respective holders.

Includes RSA BSAFE(R) Cryptographic or Security Protocol Software from RSA Security, Inc.

User: davidevi   Host: il2244vt26_davidevi   HostID: 11AC2C00   PID: 1103666
Memory  available: 3.0401 TB  physical: 3.2467 TB
Linux   : Rocky Linux release 8.10 (Green Obsidian)
CPU Type: Intel(R) Xeon(R) CPU E7-8857 v2 @ 3.00GHz
        Socket: Processors [Frequency]
        0:       0 [1200.0],  1 [3399.9],  2 [1200.0],  3 [1800.0],  4 [1200.0]
                 5 [1200.0],  6 [3600.0],  7 [3399.9],  8 [3399.9],  9 [1200.0]
                10 [1200.0], 11 [2600.0]
        1:      12 [3600.0], 13 [3395.6], 14 [3399.9], 15 [3600.0], 16 [3399.9]
                17 [3399.9], 18 [3600.0], 19 [3600.0], 20 [3399.9], 21 [3600.0]
                22 [3600.0], 23 [3600.0]
        2:      24 [1900.0], 25 [3500.0], 26 [3399.9], 27 [3399.9], 28 [1200.0]
                29 [2800.0], 30 [1200.0], 31 [1200.0], 32 [3600.0], 33 [1400.0]
                34 [3399.9], 35 [3600.0]
        3:      36 [3600.0], 37 [2700.0], 38 [1200.0], 39 [2500.0], 40 [3200.0]
                41 [3600.0], 42 [3600.0], 43 [2500.0], 44 [3369.6], 45 [3393.5]
                46 [3393.5], 47 [3600.0]
        
System load averages (1min, 5min, 15min) : 26.0 %, 18.1 %, 18.2 %
HPC is enabled


Simulating `input.scs' on il2244vt26_davidevi at 10:27:47 AM, Thur Apr 16, 2026 (process id: 1103666).
Current working directory: /home/davidevi/Desktop/myproject/Sim/VGA/VGA_1_pss_tb/maestro/results/maestro/Interactive.8/30/VGA_VGA_1_pss_tb_1/netlist
Command line:
    /opt/tools/cadence/installs/SPECTRE241/tools/bin/spectre -64  \
        input.scs +escchars +log ../psf/spectre.out -format psfbin  \
        +rtsf -raw ../psf +preset=cx +mt +lqtimeout 900 -maxw 5 -maxn 5  \
        +param /opt/pdk/ams/410/spectre/ams_range.lmts -env ade  \
        +adespetkn=0001089D13A302B663E41FB550AF0DF415A679A322D5069144BF588C12F604E07EF416DC01A319B562BB63D373F935B045A35CB01CC33CA746CC52C21AC14F9251CC79D15D9175FF34986BDD0AF002BA50FD7FD707E002A700AC1C8404FE5AE30EA979D118F874D3349879D118F874D334981031A15BCD705D780000366C  \
        -ahdllibdir  \
        /home/davidevi/Desktop/myproject/Sim/VGA/VGA_1_pss_tb/maestro/results/maestro/Interactive.8/sharedData/lscsJob518/ahdl/input.ahdlSimDB  \
        +logstatus

Simulation Id: AcLOW5rTHt9xNGeT
Licensing Information:
[10:27:47.121770] Configured Lic search path (24.01-s002): 3000@lic08.ug.kth.se:29000@lic06.ug.kth.se

Licensing Information:
[10:27:47.426066] Periodic Lic check successful

Loading /opt/tools/cadence/installs/SPECTRE241/tools.lnx86/cmi/lib/64bit/5.0/libinfineon_sh.so ...
Loading /opt/tools/cadence/installs/SPECTRE241/tools.lnx86/cmi/lib/64bit/5.0/libphilips_I_sh.so ...
Loading /opt/tools/cadence/installs/SPECTRE241/tools.lnx86/cmi/lib/64bit/5.0/libphilips_sh.so ...
Loading /opt/tools/cadence/installs/SPECTRE241/tools.lnx86/cmi/lib/64bit/5.0/libsparam_sh.so ...
Loading /opt/tools/cadence/installs/SPECTRE241/tools.lnx86/cmi/lib/64bit/5.0/libstmodels_sh.so ...

Warning from spectre.
    WARNING (SPECTRE-691): This CPU processor does not support x86 advanced vector extensions instructions. This may affect math operations and slow down the simulation.

Reading file:  /home/davidevi/Desktop/myproject/Sim/VGA/VGA_1_pss_tb/maestro/results/maestro/Interactive.8/30/VGA_VGA_1_pss_tb_1/netlist/input.scs

Notice from spectre during circuit read-in.
    Pre_Configuration file used: /opt/tools/cadence/installs/SPECTRE241/tools.lnx86/spectre/etc/configs/preset.precfg
    Configuration file used: `/opt/tools/cadence/installs/SPECTRE241/tools.lnx86/spectre/etc/configs/preset.cfg'.

Reading file:  /opt/pdk/ams/410/spectre/ams_range.lmts

Warning from spectre during read of parameter soft limits file `/opt/pdk/ams/410/spectre/ams_range.lmts', during circuit read-in.
    WARNING (SPECTRE-8360): line 1511: `ac' is an undefined primitive device.
    WARNING (SPECTRE-8360): line 1512: `ac' is an undefined primitive device.
    WARNING (SPECTRE-8360): line 1513: `ac' is an undefined primitive device.
    WARNING (SPECTRE-8360): line 1514: `ac' is an undefined primitive device.
    WARNING (SPECTRE-8360): line 1515: `ac' is an undefined primitive device.
        Further occurrences of this warning will be suppressed.

Reading file:  /opt/tools/cadence/installs/SPECTRE241/tools.lnx86/spectre/etc/configs/spectre.cfg
Reading file:  /opt/tools/cadence/installs/SPECTRE241/tools.lnx86/spectre/etc/configs/preset.precfg
Reading file:  /opt/pdk/ams/410/spectre/c35/soac/soac.scs
Reading file:  /opt/pdk/ams/410/spectre/c35/processOption.scs
Reading file:  /opt/pdk/ams/410/spectre/c35/process.scs
Reading file:  /opt/pdk/ams/410/spectre/c35/processOption/C35B4C3.scs
Reading file:  /opt/pdk/ams/410/spectre/c35/cmos53.scs
Reading file:  /opt/pdk/ams/410/spectre/c35/res.scs
Reading file:  /opt/pdk/ams/410/spectre/c35/cap.scs
Reading file:  /opt/pdk/ams/410/spectre/c35/bip.scs
Reading file:  /opt/pdk/ams/410/spectre/c35/ind.scs
Reading file:  /opt/pdk/ams/410/spectre/c35/esddiode.scs
Reading link:  /home/davidevi/Desktop/myproject/Sim/VGA/VGA_1_pss_tb/maestro/results/maestro/Interactive.8/30/VGA_VGA_1_pss_tb_1/netlist/netlist
Reading file:  /home/davidevi/Desktop/myproject/Sim/VGA/VGA_1_pss_tb/maestro/results/maestro/Interactive.8/psf/VGA_VGA_1_pss_tb_1/netlist/netlist
Reading file:  /opt/tools/cadence/installs/SPECTRE241/tools.lnx86/spectre/etc/configs/preset.cfg
Time for NDB Parsing: CPU = 177.744 ms, elapsed = 284.563 ms.
Time accumulated: CPU = 361.501 ms, elapsed = 284.565 ms.
Peak resident memory used = 179 Mbytes.

Reading link:  /opt/tools/cadence/installs/SPECTRE241/tools.lnx86/spectre/etc/ahdl/discipline.h
Reading file:  /opt/tools/cadence/installs/SPECTRE241/tools.lnx86/spectre/etc/ahdl/disciplines.vams
Reading link:  /opt/tools/cadence/installs/SPECTRE241/tools.lnx86/spectre/etc/ahdl/constants.h
Reading file:  /opt/tools/cadence/installs/SPECTRE241/tools.lnx86/spectre/etc/ahdl/constants.vams

Warning from spectre during AHDL read-in.
    WARNING (VACOMP-2435): The environment variable CDS_AHDLCMI_ENABLE is no longer supported. Therefore, the simulator will use the default compiled C code flow.

Existing shared object for module bsource_19b458 is up to date.
Installed compiled interface for bsource_19b458.

Warning from spectre during hierarchy flattening.
    WARNING (SFE-3016): The floating node net6 is removed.

Time for Elaboration: CPU = 38.475 ms, elapsed = 40.0951 ms.
Time accumulated: CPU = 400.136 ms, elapsed = 324.818 ms.
Peak resident memory used = 192 Mbytes.


Notice from spectre during hierarchy flattening.
    The value 'psf' specified for the 'checklimitdest' option will no longer be supported in future releases. Use 'spectre -h' to see other recommended values for the 'checklimitdest' option.


*****************************************************************************************
* 
* INFO: AMS_processOption = C35B4C3
* 
* INFO: Valid Modules  PIP VG5 HIRES
* 
*****************************************************************************************


Time for EDB Visiting: CPU = 5.353 ms, elapsed = 5.36203 ms.
Time accumulated: CPU = 405.622 ms, elapsed = 330.313 ms.
Peak resident memory used = 195 Mbytes.

Loading /opt/tools/cadence/installs/SPECTRE241/tools.lnx86/mdl/lib/64bit/libSpectreEH_sh.so ...

Warning from spectre during initial setup.
    WARNING (SPECTRE-17607): Assert `SOAC_rpolyh_vminuspsub' is ignored because it contains an expression which is invalid or not supported by native evaluator. 
    WARNING (SPECTRE-17607): Assert `SOAC_rpolyh_vpluspsub' is ignored because it contains an expression which is invalid or not supported by native evaluator. 
    WARNING (SPECTRE-16460): SOAC_cvarm_vspsub:Specified subcircuit master `cvarm' was not found.
    WARNING (SPECTRE-16462): SOAC_cvarm_vspsub:Error in specification of subcircuit master. Assert is ignored.
    WARNING (SPECTRE-16460): SOAC_cvarm_vbs:Specified subcircuit master `cvarm' was not found.
    WARNING (SPECTRE-16462): SOAC_cvarm_vbs:Error in specification of subcircuit master. Assert is ignored.
    WARNING (SPECTRE-16460): SOAC_cvarm_vgb:Specified subcircuit master `cvarm' was not found.
    WARNING (SPECTRE-16462): SOAC_cvarm_vgb:Error in specification of subcircuit master. Assert is ignored.
    WARNING (SPECTRE-16460): SOAC_cvart_vspsub:Specified subcircuit master `cvart' was not found.
    WARNING (SPECTRE-16462): SOAC_cvart_vspsub:Error in specification of subcircuit master. Assert is ignored.
    WARNING (SPECTRE-16460): SOAC_cvart_vbs:Specified subcircuit master `cvart' was not found.
        Further occurrences of this warning will be suppressed.
    WARNING (SPECTRE-16462): SOAC_cvart_vbs:Error in specification of subcircuit master. Assert is ignored.
        Further occurrences of this warning will be suppressed.
    WARNING (SPECTRE-17607): Assert `SOAC_cpoly_vminuspsub' is ignored because it contains an expression which is invalid or not supported by native evaluator. 
    WARNING (SPECTRE-17607): Assert `SOAC_cpoly_vpluspsub' is ignored because it contains an expression which is invalid or not supported by native evaluator. 
    WARNING (SPECTRE-17607): Assert `SOAC_modp_vbpsub' is ignored because it contains an expression which is invalid or not supported by native evaluator. 
        Further occurrences of this warning will be suppressed.
Notice from spectre during initial setup.
    Multithreading is disabled due to the size of the design being too small.


Netlist title:
        // Point Netlist Generated on: Apr 16 10:27:47 2026


Warning from spectre during initial setup.
    WARNING (SPECTRE-592): Following parameters are disabled because they are ignored or redefined in Spectre X:
        
        
        PSS Parameters:
          errpreset


Global user options:
         psfversion = 1.4.0
               temp = -40
           homotopy = 5
              limit = delta
         compatible = spice2
               gmin = 1e-12
             rforce = 1
           maxnotes = 5
           maxwarns = 5
             digits = 5
               cols = 80
             pivrel = 0.001
           sensfile = ../psf/sens.output
     checklimitdest = psf
     enable_pre_ver = yes
      ignorezerovar = yes
               save = allpub
               tnom = 27
             scalem = 1
              scale = 1

Scoped user options:

Circuit inventory:
              nodes 31
            bsim3v3 33    
     bsource_19b458 2     
          capacitor 38    
            isource 1     
           resistor 1     
            vsource 7     

Analysis and control statement inventory:
               info 7     
                pss 1     
               tran 1     

Output statements:
             .probe 0     
           .measure 0     
               save 0     

Design checks inventory:
          paramtest 53    
             assert 175   


Notice from spectre during initial setup.
    Spectre X preset=cx enabled.
    73 warnings suppressed.

Time for parsing: CPU = 20.176 ms, elapsed = 569.211 ms.
Time accumulated: CPU = 425.906 ms, elapsed = 899.631 ms.
Peak resident memory used = 201 Mbytes.

~~~~~~~~~~~~~~~~~~~~~~
Pre-Simulation Summary
~~~~~~~~~~~~~~~~~~~~~~
   -   (Spectre X) Multi-threading. The recommended number of threads is 1, consider adding +mt=1 on command line.
~~~~~~~~~~~~~~~~~~~~~~

Notice from spectre during transient analysis `tran'.
    No checklimit analysis defined for asserts. A default checklimit analysis 'SpectreChecklimitAnal' has been created with all asserts enabled.


*************************************************
Transient Analysis `tran': time = (0 s -> 100 ms)
*************************************************

Notice from spectre during IC analysis, during transient analysis `tran'.
    Bad pivoting is found during DC analysis. Option dc_pivot_check=yes is recommended for possible improvement of convergence.
Warning from spectre during check, during IC analysis, during transient analysis `tran'.
    WARNING (CMI-2943): Parameter checks have been ignored because the valid value for parameter 'trise' could not be found in 'C1'.
    WARNING (CMI-2943): Parameter checks have been ignored because the valid value for parameter 'trise' could not be found in 'I0.C8<0>_turbo_m4.C1'.
    WARNING (CMI-2943): Parameter checks have been ignored because the valid value for parameter 'trise' could not be found in 'I0.C9<0>_turbo_m8.C1'.
    WARNING (CMI-2943): Parameter checks have been ignored because the valid value for parameter 'trise' could not be found in 'I0.C7<0>_turbo_m2.C1'.
    WARNING (CMI-2943): Parameter checks have been ignored because the valid value for parameter 'trise' could not be found in 'I0.R2.CM'.
        Further occurrences of this warning will be suppressed.

Convergence achieved in 19 iterations.
DC simulation time: CPU = 2.948 ms, elapsed = 2.949 ms.

Opening the PSF file ../psf/tran.tran.tran ...
Important parameter values:
    start = 0 s
    outputstart = 0 s
    stop = 100 ms
    step = 100 us
    maxstep = 1 ms
    ic = all
    useprevic = no
    skipdc = no
    reltol = 100e-06
    abstol(V) = 1 uV
    abstol(I) = 1 pA
    temp = -40 C
    tnom = 27 C
    tempeffects = all
    errpreset = conservative_sigglobal
    method = gear2only
    lteratio = 10
    relref = sigglobal
    cmin = 0 F
    gmin = 1 pS
    rabsshort = 1 mOhm


Notice from spectre during transient analysis `tran'.
    Multithreading is disabled due to the size of the design being too small.


Output and IC/nodeset summary:
                 save   7       (current)
                 save   30      (voltage)

    tran: time = 2.909 ms    (2.91 %), step = 934.8 us     (935 m%)
    tran: time = 7.847 ms    (7.85 %), step = 1 ms            (1 %)
    tran: time = 13.29 ms    (13.3 %), step = 871.2 us     (871 m%)
    tran: time = 18.21 ms    (18.2 %), step = 1 ms            (1 %)
    tran: time = 22.73 ms    (22.7 %), step = 854.8 us     (855 m%)
    tran: time = 27.56 ms    (27.6 %), step = 1 ms            (1 %)
    tran: time = 33.05 ms      (33 %), step = 862.8 us     (863 m%)
    tran: time = 37.92 ms    (37.9 %), step = 1 ms            (1 %)
    tran: time = 43.36 ms    (43.4 %), step = 873.6 us     (874 m%)
    tran: time = 48.28 ms    (48.3 %), step = 1 ms            (1 %)
    tran: time = 52.79 ms    (52.8 %), step = 856.1 us     (856 m%)
    tran: time = 57.63 ms    (57.6 %), step = 1 ms            (1 %)
    tran: time = 63.11 ms    (63.1 %), step = 864.7 us     (865 m%)
    tran: time = 67.99 ms      (68 %), step = 1 ms            (1 %)
    tran: time = 72.54 ms    (72.5 %), step = 851.1 us     (851 m%)
    tran: time = 78.35 ms    (78.3 %), step = 1 ms            (1 %)
    tran: time = 82.85 ms    (82.9 %), step = 857.6 us     (858 m%)
    tran: time = 87.7 ms     (87.7 %), step = 1 ms            (1 %)
    tran: time = 93.17 ms    (93.2 %), step = 866.7 us     (867 m%)
    tran: time = 98.07 ms    (98.1 %), step = 1 ms            (1 %)
Number of accepted tran steps =             112

Maximum value achieved for any signal of each quantity: 
V: V(S<0>) = 3.3 V
I: I(V0:p) = 6.473 uA

~~~~~~~~~~~~~~~~~~~~~~~~~~~~~~~~~
Post-Transient Simulation Summary
~~~~~~~~~~~~~~~~~~~~~~~~~~~~~~~~~
   -   Non-default settings that could significantly slow down simulation
          errpreset = conservative_sigglobal, default moderate
~~~~~~~~~~~~~~~~~~~~~~~~~~~~~~~~~


During simulation, the CPU load for active processors is :
         0 (12.5 %)      1 (30.7 %)      2 (36.4 %)      3 (22.7 %)
         4 (5.6 %)       5 (16.5 %)      6 (73.0 %)      7 (33.7 %)
         8 (100.0 %)     9 (13.6 %)     10 (3.4 %)      11 (56.3 %)
        12 (26.4 %)     13 (34.5 %)     14 (78.7 %)     15 (12.6 %)
        16 (31.1 %)     17 (34.8 %)     18 (27.3 %)     19 (10.5 %)
        20 (100.0 %)    21 (8.1 %)      22 (13.3 %)     23 (8.0 %)
        24 (85.4 %)     25 (24.4 %)     26 (56.2 %)     27 (25.3 %)
        28 (28.1 %)     29 (3.5 %)      30 (12.5 %)     31 (9.3 %)
        32 (4.8 %)      33 (20.5 %)     34 (29.5 %)     35 (60.7 %)
        36 (14.8 %)     37 (31.1 %)     38 (13.8 %)     39 (6.7 %)
        40 (21.6 %)     41 (43.2 %)     42 (10.5 %)     43 (3.5 %)
        44 (4.7 %)      45 (100.0 %)    46 (92.1 %)     47 (56.8 %)
        Total: 1548.8%
Initial condition solution time: CPU = 2.986 ms, elapsed = 2.98905 ms.
Intrinsic tran analysis time:    CPU = 21.249 ms, elapsed = 22.8691 ms.
Total time required for tran analysis `tran': CPU = 99.069 ms, elapsed = 103.69 ms, util. = 95.5%.
Time accumulated: CPU = 547.089 ms, elapsed = 1.02634 s.
Peak resident memory used = 211 Mbytes.


Notice from spectre.
    12 warnings suppressed.

finalTimeOP: writing operating point information to rawfile.

Opening the PSF file ../psf/finalTimeOP.info ...
Licensing Information:
[10:27:48.332882] Periodic Lic check successful


**************************************************
Periodic Steady-State Analysis `pss': fund = 50 Hz
**************************************************

Notice from spectre during IC analysis, during periodic steady state analysis `pss'.
    Bad pivoting is found during DC analysis. Option dc_pivot_check=yes is recommended for possible improvement of convergence.
Warning from spectre during check, during IC analysis, during periodic steady state analysis `pss'.
    WARNING (CMI-2943): Parameter checks have been ignored because the valid value for parameter 'trise' could not be found in 'C1'.
    WARNING (CMI-2943): Parameter checks have been ignored because the valid value for parameter 'trise' could not be found in 'I0.C8<0>_turbo_m4.C1'.
    WARNING (CMI-2943): Parameter checks have been ignored because the valid value for parameter 'trise' could not be found in 'I0.C9<0>_turbo_m8.C1'.
    WARNING (CMI-2943): Parameter checks have been ignored because the valid value for parameter 'trise' could not be found in 'I0.C7<0>_turbo_m2.C1'.
    WARNING (CMI-2943): Parameter checks have been ignored because the valid value for parameter 'trise' could not be found in 'I0.R2.CM'.
        Further occurrences of this warning will be suppressed.

Convergence achieved in 19 iterations.
DC simulation time: CPU = 2.477 ms, elapsed = 2.4848 ms.

==================================
pss `tstab': time = (0 s -> 20 ms)
==================================

Output and IC/nodeset summary:
                 save   7       (current)
                 save   30      (voltage)

Important parameter values in tstab integration:
    start = 0 s
    outputstart = 0 s
    stop = 20 ms
    period = 20 ms
    maxperiods = 20
    step = 20 us
    maxstep = 800 us
    ic = all
    useprevic = no
    skipdc = no
    reltol = 1e-03
    abstol(V) = 1 uV
    abstol(I) = 1 pA
    temp = -40 C
    tnom = 27 C
    tempeffects = all
    method = traponly
    lteratio = 3.5
    relref = sigglobal
    cmin = 0 F
    gmin = 1 pS
    rabsshort = 1 mOhm

    pss: time = 522.5 us    (2.61 %), step = 264.3 us     (1.32 %)
    pss: time = 2.201 ms      (11 %), step = 800 us          (4 %)
    pss: time = 3.001 ms      (15 %), step = 800 us          (4 %)
    pss: time = 3.801 ms      (19 %), step = 800 us          (4 %)
    pss: time = 4.601 ms      (23 %), step = 800 us          (4 %)
    pss: time = 6.201 ms      (31 %), step = 800 us          (4 %)
    pss: time = 7.001 ms      (35 %), step = 800 us          (4 %)
    pss: time = 7.801 ms      (39 %), step = 800 us          (4 %)
    pss: time = 8.601 ms      (43 %), step = 800 us          (4 %)
    pss: time = 10.2 ms       (51 %), step = 800 us          (4 %)
    pss: time = 11 ms         (55 %), step = 800 us          (4 %)
    pss: time = 11.8 ms       (59 %), step = 800 us          (4 %)
    pss: time = 12.6 ms       (63 %), step = 800 us          (4 %)
    pss: time = 14.2 ms       (71 %), step = 800 us          (4 %)
    pss: time = 15 ms         (75 %), step = 800 us          (4 %)
    pss: time = 15.8 ms       (79 %), step = 800 us          (4 %)
    pss: time = 16.6 ms       (83 %), step = 800 us          (4 %)
    pss: time = 18.2 ms       (91 %), step = 800 us          (4 %)
    pss: time = 19 ms         (95 %), step = 800 us          (4 %)
    pss: time = 19.5 ms     (97.5 %), step = 499.6 us      (2.5 %)
Total time required for tstab analysis `pss': CPU = 5.615 ms, elapsed = 5.61404 ms.
Time accumulated: CPU = 569.238 ms, elapsed = 1.06365 s.
Peak resident memory used = 213 Mbytes.

Conv norm = 29.8, max dV(vout_filt) = -10.2417 mV, took 10 ms.

Important parameter values in pss iteration:
    start = 0 s
    outputstart = 0 s
    stop = 20 ms
    period = 20 ms
    maxperiods = 20
    steadyratio = 10e-03
    step = 20 us
    maxstep = 100 us
    ic = all
    useprevic = no
    skipdc = no
    reltol = 100e-06
    abstol(V) = 1 uV
    abstol(I) = 1 pA
    temp = -40 C
    tnom = 27 C
    tempeffects = all
    errpreset = conservative
    method = gear2only
    lteratio = 10
    relref = sigglobal
    cmin = 0 F
    gmin = 1 pS
    rabsshort = 1 mOhm


Notice from spectre during periodic steady state analysis `pss'.
    12 warnings suppressed.


============================
`pss': time = (0 s -> 20 ms)
============================
    pss: time = 512.5 us    (2.56 %), step = 12.5 us     (62.5 m%)
    pss: time = 1.512 ms    (7.56 %), step = 12.5 us     (62.5 m%)
    pss: time = 2.512 ms    (12.6 %), step = 12.5 us     (62.5 m%)
    pss: time = 3.512 ms    (17.6 %), step = 12.5 us     (62.5 m%)
    pss: time = 4.5 ms      (22.5 %), step = 12.5 us     (62.5 m%)
    pss: time = 5.5 ms      (27.5 %), step = 12.5 us     (62.5 m%)
    pss: time = 6.5 ms      (32.5 %), step = 12.5 us     (62.5 m%)
    pss: time = 7.5 ms      (37.5 %), step = 12.5 us     (62.5 m%)
    pss: time = 8.5 ms      (42.5 %), step = 12.5 us     (62.5 m%)
    pss: time = 9.5 ms      (47.5 %), step = 12.5 us     (62.5 m%)
    pss: time = 10.5 ms     (52.5 %), step = 12.5 us     (62.5 m%)
    pss: time = 11.5 ms     (57.5 %), step = 12.5 us     (62.5 m%)
    pss: time = 12.5 ms     (62.5 %), step = 12.5 us     (62.5 m%)
    pss: time = 13.5 ms     (67.5 %), step = 12.5 us     (62.5 m%)
    pss: time = 14.5 ms     (72.5 %), step = 12.5 us     (62.5 m%)
    pss: time = 15.5 ms     (77.5 %), step = 12.5 us     (62.5 m%)
    pss: time = 16.5 ms     (82.5 %), step = 12.5 us     (62.5 m%)
    pss: time = 17.5 ms     (87.5 %), step = 12.5 us     (62.5 m%)
    pss: time = 18.5 ms     (92.5 %), step = 12.5 us     (62.5 m%)
    pss: time = 19.51 ms    (97.6 %), step = 12.5 us     (62.5 m%)
Conv norm = 259e-03, max dV(vout_filt) = 25.5674 uV, took 340 ms.


Opening the PSF file ../psf/pss.td.pss ...

Opening the PSF file ../psf/pss.fd.pss ...

============================
`pss': time = (0 s -> 20 ms)
============================
    pss: time = 512.5 us    (2.56 %), step = 12.5 us     (62.5 m%)
    pss: time = 1.512 ms    (7.56 %), step = 12.5 us     (62.5 m%)
    pss: time = 2.512 ms    (12.6 %), step = 12.5 us     (62.5 m%)
    pss: time = 3.512 ms    (17.6 %), step = 12.5 us     (62.5 m%)
    pss: time = 4.5 ms      (22.5 %), step = 12.5 us     (62.5 m%)
    pss: time = 5.5 ms      (27.5 %), step = 12.5 us     (62.5 m%)
    pss: time = 6.5 ms      (32.5 %), step = 12.5 us     (62.5 m%)
    pss: time = 7.5 ms      (37.5 %), step = 12.5 us     (62.5 m%)
    pss: time = 8.5 ms      (42.5 %), step = 12.5 us     (62.5 m%)
    pss: time = 9.5 ms      (47.5 %), step = 12.5 us     (62.5 m%)
    pss: time = 10.5 ms     (52.5 %), step = 12.5 us     (62.5 m%)
    pss: time = 11.5 ms     (57.5 %), step = 12.5 us     (62.5 m%)
    pss: time = 12.5 ms     (62.5 %), step = 12.5 us     (62.5 m%)
    pss: time = 13.5 ms     (67.5 %), step = 12.5 us     (62.5 m%)
    pss: time = 14.5 ms     (72.5 %), step = 12.5 us     (62.5 m%)
    pss: time = 15.5 ms     (77.5 %), step = 12.5 us     (62.5 m%)
    pss: time = 16.5 ms     (82.5 %), step = 12.5 us     (62.5 m%)
    pss: time = 17.5 ms     (87.5 %), step = 12.5 us     (62.5 m%)
    pss: time = 18.5 ms     (92.5 %), step = 12.5 us     (62.5 m%)
    pss: time = 19.51 ms    (97.6 %), step = 12.5 us     (62.5 m%)

Maximum value achieved for any signal of each quantity: 
V: V(S<0>) = 3.3 V
I: I(V0:p) = 6.473 uA
Initial condition solution time: CPU = 2.518 ms, elapsed = 2.52891 ms.
pss: The steady-state solution was achieved in 2 iterations.
Number of accepted pss steps =             1600
Total time required for pss analysis `pss': CPU = 729.89 ms, elapsed = 746.427 ms, util. = 97.8%.
Time accumulated: CPU = 1.28348 s, elapsed = 1.78162 s.
Peak resident memory used = 219 Mbytes.

modelParameter: writing model parameter values to rawfile.

Opening the PSF file ../psf/modelParameter.info ...
element: writing instance parameter values to rawfile.

Opening the PSF file ../psf/element.info ...
outputParameter: writing output parameter values to rawfile.

Opening the PSF file ../psf/outputParameter.info ...
designParamVals: writing netlist parameters to rawfile.

Opening the PSFASCII file ../psf/designParamVals.info ...
primitives: writing primitives to rawfile.

Opening the PSFASCII file ../psf/primitives.info.primitives ...
subckts: writing subcircuits to rawfile.

Opening the PSFASCII file ../psf/subckts.info.subckts ...
Licensing Information:
Lic Summary:
[10:27:49.099347] Cdslmd servers:3000@lic08.ug.kth.se:29000@lic06.ug.kth.se
[10:27:49.623697] Feature usage summary:
[10:27:49.623698] Virtuoso_Multi_mode_Simulation
[10:27:49.623698] Spectre_X_MMSIM_Lk


Aggregate audit (10:27:49 AM, Thur Apr 16, 2026):
Time used: CPU = 1.31 s, elapsed = 1.82 s, util. = 72.1%.
Time spent in licensing: elapsed = 73.7 ms.
Peak memory used = 219 Mbytes.
Simulation started at: 10:27:47 AM, Thur Apr 16, 2026, ended at: 10:27:49 AM, Thur Apr 16, 2026, with elapsed time (wall clock): 1.82 s.
spectre completes with 0 errors, 34 warnings, and 14 notices.
