
Spectre (R) Circuit Simulator
Version 24.1.0.288.isr5 64bit -- 3 Apr 2025
Copyright (C) 1989-2025 Cadence Design Systems, Inc. All rights reserved worldwide. Cadence and Spectre are registered trademarks of Cadence Design Systems, Inc. All others are the property of their respective holders.

Includes RSA BSAFE(R) Cryptographic or Security Protocol Software from RSA Security, Inc.

User: davidevi   Host: il2244vt26_davidevi   HostID: 11AC2C00   PID: 1062906
Memory  available: 3.0367 TB  physical: 3.2467 TB
Linux   : Rocky Linux release 8.10 (Green Obsidian)
CPU Type: Intel(R) Xeon(R) CPU E7-8857 v2 @ 3.00GHz
        Socket: Processors [Frequency]
        0:       0 [3391.1],  1 [3600.0],  2 [3391.2],  3 [3391.3],  4 [3391.3]
                 5 [3600.0],  6 [3600.0],  7 [3400.0],  8 [3391.3],  9 [3391.3]
                10 [3600.0], 11 [3600.0]
        1:      12 [3600.0], 13 [3600.0], 14 [3600.0], 15 [3600.0], 16 [3600.0]
                17 [3362.9], 18 [3341.8], 19 [3362.9], 20 [3362.7], 21 [3600.0]
                22 [3600.0], 23 [3363.0]
        2:      24 [3600.0], 25 [3600.0], 26 [3399.9], 27 [3600.0], 28 [3399.9]
                29 [3100.0], 30 [3399.9], 31 [3399.9], 32 [1200.0], 33 [3600.0]
                34 [3600.0], 35 [3399.9]
        3:      36 [3600.0], 37 [2800.0], 38 [3387.6], 39 [3500.0], 40 [3387.6]
                41 [3368.8], 42 [3387.6], 43 [3374.0], 44 [3387.6], 45 [3600.0]
                46 [3387.6], 47 [3387.7]
        
System load averages (1min, 5min, 15min) : 31.4 %, 26.1 %, 21.6 %
HPC is enabled


Simulating `input.scs' on il2244vt26_davidevi at 9:31:31 AM, Thur Apr 16, 2026 (process id: 1062906).
Current working directory: /home/davidevi/Desktop/myproject/Sim/VGA/VGA_1_pss_tb/maestro/results/maestro/MonteCarlo.8/31/MC/groupRunDataDir/netlist
Command line:
    /opt/tools/cadence/installs/SPECTRE241/tools/bin/spectre -64  \
        input.scs +escchars +log ../psf/spectre.out -format psfbin  \
        +rtsf -raw ../psf +preset=cx +mt +lqtimeout 900 -maxw 5 -maxn 5  \
        +param /opt/pdk/ams/410/spectre/ams_range.lmts -env ade  \
        +adespetkn=0001089D13A302B663E41FB550AF0DF415A679A322D5069144BF588C12F604E07EF416DC01A319B562BB63D36BEF2DA645A347F233CD3C9E7CED78E646FF4F926CEB79D15D9175FF34986BDD0AF002BA50FD7FD707E002A700AC1C8404FE5AE30EA979D118F874D3349879D118F874D334981031B48AD8A15D78000036E6  \
        -ahdllibdir  \
        /home/davidevi/Desktop/myproject/Sim/VGA/VGA_1_pss_tb/maestro/results/maestro/MonteCarlo.8/sharedData/lscsJob479/ahdl/input.ahdlSimDB  \
        +logstatus

Simulation Id: YucxvVHuHMeFYDXs
Licensing Information:
[09:31:31.121738] Configured Lic search path (24.01-s002): 3000@lic08.ug.kth.se:29000@lic06.ug.kth.se

Licensing Information:
[09:31:31.350689] Periodic Lic check successful

Loading /opt/tools/cadence/installs/SPECTRE241/tools.lnx86/cmi/lib/64bit/5.0/libinfineon_sh.so ...
Loading /opt/tools/cadence/installs/SPECTRE241/tools.lnx86/cmi/lib/64bit/5.0/libphilips_I_sh.so ...
Loading /opt/tools/cadence/installs/SPECTRE241/tools.lnx86/cmi/lib/64bit/5.0/libphilips_sh.so ...
Loading /opt/tools/cadence/installs/SPECTRE241/tools.lnx86/cmi/lib/64bit/5.0/libsparam_sh.so ...
Loading /opt/tools/cadence/installs/SPECTRE241/tools.lnx86/cmi/lib/64bit/5.0/libstmodels_sh.so ...

Warning from spectre.
    WARNING (SPECTRE-691): This CPU processor does not support x86 advanced vector extensions instructions. This may affect math operations and slow down the simulation.

Reading file:  /home/davidevi/Desktop/myproject/Sim/VGA/VGA_1_pss_tb/maestro/results/maestro/MonteCarlo.8/31/MC/groupRunDataDir/netlist/input.scs

Notice from spectre during circuit read-in.
    Pre_Configuration file used: /opt/tools/cadence/installs/SPECTRE241/tools.lnx86/spectre/etc/configs/preset.precfg
    Configuration file used: `/opt/tools/cadence/installs/SPECTRE241/tools.lnx86/spectre/etc/configs/preset.cfg'.

Reading file:  /opt/pdk/ams/410/spectre/ams_range.lmts

Warning from spectre during read of parameter soft limits file `/opt/pdk/ams/410/spectre/ams_range.lmts', during circuit read-in.
    WARNING (SPECTRE-8360): line 1511: `ac' is an undefined primitive device.
    WARNING (SPECTRE-8360): line 1512: `ac' is an undefined primitive device.
    WARNING (SPECTRE-8360): line 1513: `ac' is an undefined primitive device.
    WARNING (SPECTRE-8360): line 1514: `ac' is an undefined primitive device.
    WARNING (SPECTRE-8360): line 1515: `ac' is an undefined primitive device.
        Further occurrences of this warning will be suppressed.

Reading file:  /opt/tools/cadence/installs/SPECTRE241/tools.lnx86/spectre/etc/configs/spectre.cfg
Reading file:  /opt/tools/cadence/installs/SPECTRE241/tools.lnx86/spectre/etc/configs/preset.precfg
Reading file:  /opt/pdk/ams/410/spectre/c35/soac/soac.scs
Reading file:  /opt/pdk/ams/410/spectre/c35/processOption.scs
Reading file:  /opt/pdk/ams/410/spectre/c35/process.scs
Reading file:  /opt/pdk/ams/410/spectre/c35/processOption/C35B4C3.scs
Reading file:  /opt/pdk/ams/410/spectre/c35/cmos53.scs
Reading file:  /opt/pdk/ams/410/spectre/c35/res.scs
Reading file:  /opt/pdk/ams/410/spectre/c35/cap.scs
Reading file:  /opt/pdk/ams/410/spectre/c35/bip.scs
Reading file:  /opt/pdk/ams/410/spectre/c35/ind.scs
Reading file:  /opt/pdk/ams/410/spectre/c35/esddiode.scs
Reading link:  /home/davidevi/Desktop/myproject/Sim/VGA/VGA_1_pss_tb/maestro/results/maestro/MonteCarlo.8/31/MC/groupRunDataDir/netlist/netlist
Reading file:  /home/davidevi/Desktop/myproject/Sim/VGA/VGA_1_pss_tb/maestro/results/maestro/MonteCarlo.8/psf/MC/netlist/netlist
Reading file:  /opt/tools/cadence/installs/SPECTRE241/tools.lnx86/spectre/etc/configs/preset.cfg
Time for NDB Parsing: CPU = 201.312 ms, elapsed = 342.133 ms.
Time accumulated: CPU = 392.972 ms, elapsed = 342.135 ms.
Peak resident memory used = 179 Mbytes.

Reading link:  /opt/tools/cadence/installs/SPECTRE241/tools.lnx86/spectre/etc/ahdl/discipline.h
Reading file:  /opt/tools/cadence/installs/SPECTRE241/tools.lnx86/spectre/etc/ahdl/disciplines.vams
Reading link:  /opt/tools/cadence/installs/SPECTRE241/tools.lnx86/spectre/etc/ahdl/constants.h
Reading file:  /opt/tools/cadence/installs/SPECTRE241/tools.lnx86/spectre/etc/ahdl/constants.vams

Warning from spectre during AHDL read-in.
    WARNING (VACOMP-2435): The environment variable CDS_AHDLCMI_ENABLE is no longer supported. Therefore, the simulator will use the default compiled C code flow.

Created directory /home/davidevi/Desktop/myproject/Sim/VGA/VGA_1_pss_tb/maestro/results/maestro/MonteCarlo.8/sharedData/lscsJob479/ahdl/input.ahdlSimDB/input.ahdlSimDB/ (775)
Created directory /home/davidevi/Desktop/myproject/Sim/VGA/VGA_1_pss_tb/maestro/results/maestro/MonteCarlo.8/sharedData/lscsJob479/ahdl/input.ahdlSimDB/input.ahdlSimDB//bsource_fcab9d.va.bsource_fcab9d.ahdlcmi/ (775)
Reading file:  /home/davidevi/Desktop/myproject/Sim/ECG_IA/ecg_vga_tb/adexl/results/data/MonteCarlo.3/sharedData/Job173/ahdl/input.ahdlSimDB/input.ahdlSimDB/bsource_fcab9d.va.bsource_fcab9d.ahdlcmi/Linux-64/obj/optimize/5.0/libahdlcmi_bsource_fcab9d.so
Created directory /home/davidevi/Desktop/myproject/Sim/VGA/VGA_1_pss_tb/maestro/results/maestro/MonteCarlo.8/sharedData/lscsJob479/ahdl/input.ahdlSimDB/input.ahdlSimDB//bsource_fcab9d.va.bsource_fcab9d.ahdlcmi/Linux-64/obj/optimize/5.0 
Copying files from directory /home/davidevi/Desktop/myproject/Sim/ECG_IA/ecg_vga_tb/adexl/results/data/MonteCarlo.3/sharedData/Job173/ahdl/input.ahdlSimDB/input.ahdlSimDB/bsource_fcab9d.va.bsource_fcab9d.ahdlcmi/Linux-64/ to directory /home/davidevi/Desktop/myproject/Sim/VGA/VGA_1_pss_tb/maestro/results/maestro/MonteCarlo.8/sharedData/lscsJob479/ahdl/input.ahdlSimDB/input.ahdlSimDB//bsource_fcab9d.va.bsource_fcab9d.ahdlcmi/Linux-64/
Finished copying files from /home/davidevi/Desktop/myproject/Sim/ECG_IA/ecg_vga_tb/adexl/results/data/MonteCarlo.3/sharedData/Job173/ahdl/input.ahdlSimDB/input.ahdlSimDB/bsource_fcab9d.va.bsource_fcab9d.ahdlcmi/Linux-64/ to /home/davidevi/Desktop/myproject/Sim/VGA/VGA_1_pss_tb/maestro/results/maestro/MonteCarlo.8/sharedData/lscsJob479/ahdl/input.ahdlSimDB/input.ahdlSimDB//bsource_fcab9d.va.bsource_fcab9d.ahdlcmi/Linux-64/.
The simulator has reused the existing Verilog-A libraries for this simulation run. If you do not want to use these libraries, set the 'CDS_AHDL_REUSE_LIB' environment variable to 'NO' and rerun the simulation.
Existing shared object for module bsource_fcab9d is up to date.
Installed compiled interface for bsource_fcab9d.

Warning from spectre during hierarchy flattening.
    WARNING (SFE-3016): The floating node net6 is removed.

Time for Elaboration: CPU = 129.236 ms, elapsed = 170.558 ms.
Time accumulated: CPU = 522.404 ms, elapsed = 512.888 ms.
Peak resident memory used = 196 Mbytes.


Notice from spectre during hierarchy flattening.
    The value 'psf' specified for the 'checklimitdest' option will no longer be supported in future releases. Use 'spectre -h' to see other recommended values for the 'checklimitdest' option.


*****************************************************************************************
* 
* INFO: AMS_processOption = C35B4C3
* 
* INFO: Valid Modules  PIP VG5 HIRES
* 
*****************************************************************************************


Time for EDB Visiting: CPU = 7.728 ms, elapsed = 8.74901 ms.
Time accumulated: CPU = 530.298 ms, elapsed = 521.803 ms.
Peak resident memory used = 198 Mbytes.

Loading /opt/tools/cadence/installs/SPECTRE241/tools.lnx86/mdl/lib/64bit/libSpectreEH_sh.so ...

Warning from spectre during initial setup.
    WARNING (SPECTRE-17607): Assert `SOAC_rpolyh_vminuspsub' is ignored because it contains an expression which is invalid or not supported by native evaluator. 
    WARNING (SPECTRE-17607): Assert `SOAC_rpolyh_vpluspsub' is ignored because it contains an expression which is invalid or not supported by native evaluator. 
    WARNING (SPECTRE-16460): SOAC_cvarm_vspsub:Specified subcircuit master `cvarm' was not found.
    WARNING (SPECTRE-16462): SOAC_cvarm_vspsub:Error in specification of subcircuit master. Assert is ignored.
    WARNING (SPECTRE-16460): SOAC_cvarm_vbs:Specified subcircuit master `cvarm' was not found.
    WARNING (SPECTRE-16462): SOAC_cvarm_vbs:Error in specification of subcircuit master. Assert is ignored.
    WARNING (SPECTRE-16460): SOAC_cvarm_vgb:Specified subcircuit master `cvarm' was not found.
    WARNING (SPECTRE-16462): SOAC_cvarm_vgb:Error in specification of subcircuit master. Assert is ignored.
    WARNING (SPECTRE-16460): SOAC_cvart_vspsub:Specified subcircuit master `cvart' was not found.
    WARNING (SPECTRE-16462): SOAC_cvart_vspsub:Error in specification of subcircuit master. Assert is ignored.
    WARNING (SPECTRE-16460): SOAC_cvart_vbs:Specified subcircuit master `cvart' was not found.
        Further occurrences of this warning will be suppressed.
    WARNING (SPECTRE-16462): SOAC_cvart_vbs:Error in specification of subcircuit master. Assert is ignored.
        Further occurrences of this warning will be suppressed.
    WARNING (SPECTRE-17607): Assert `SOAC_cpoly_vminuspsub' is ignored because it contains an expression which is invalid or not supported by native evaluator. 
    WARNING (SPECTRE-17607): Assert `SOAC_cpoly_vpluspsub' is ignored because it contains an expression which is invalid or not supported by native evaluator. 
    WARNING (SPECTRE-17607): Assert `SOAC_modp_vbpsub' is ignored because it contains an expression which is invalid or not supported by native evaluator. 
        Further occurrences of this warning will be suppressed.
Notice from spectre during initial setup.
    Multithreading is disabled due to the size of the design being too small.


Netlist title:
        // Point Netlist Generated on: Apr 16 09:31:21 2026


Warning from spectre during initial setup.
    WARNING (SPECTRE-592): Following parameters are disabled because they are ignored or redefined in Spectre X:
        
        
        PSS Parameters:
          errpreset


Global user options:
         psfversion = 1.4.0
               temp = 27
           homotopy = 5
              limit = delta
         compatible = spice2
               gmin = 1e-12
             rforce = 1
           maxnotes = 5
           maxwarns = 5
             digits = 5
               cols = 80
             pivrel = 0.001
           sensfile = ../psf/sens.output
     checklimitdest = psf
     enable_pre_ver = yes
      ignorezerovar = yes
               save = allpub
               tnom = 27
             scalem = 1
              scale = 1

Scoped user options:

Circuit inventory:
              nodes 33
            bsim3v3 35    
     bsource_fcab9d 2     
          capacitor 38    
            isource 1     
           resistor 1     
            vsource 7     

Analysis and control statement inventory:
               info 7     
         montecarlo 1     
                pss 1     
               tran 1     

Output statements:
             .probe 0     
           .measure 0     
               save 0     

Design checks inventory:
          paramtest 55    
             assert 175   


Notice from spectre during initial setup.
    Spectre X preset=cx enabled.
    73 warnings suppressed.

Time for parsing: CPU = 19.488 ms, elapsed = 604.517 ms.
Time accumulated: CPU = 549.894 ms, elapsed = 1.12643 s.
Peak resident memory used = 206 Mbytes.

~~~~~~~~~~~~~~~~~~~~~~
Pre-Simulation Summary
~~~~~~~~~~~~~~~~~~~~~~
   -   (Spectre X) Multi-threading. The recommended number of threads is 1, consider adding +mt=1 on command line.
~~~~~~~~~~~~~~~~~~~~~~

**************************************************
Monte Carlo Analysis `mc1': iteration = (31 -> 35)
**************************************************
Important parameter values:
    seed = 12345
    sampling = lds
    variations = all
    firstrun = 31
    numruns = 5
    nullmfactorcorrelation = no
    donominal = no
    method = standard
Opening iteration number and data-directory mapping file:  /home/davidevi/Desktop/myproject/Sim/VGA/VGA_1_pss_tb/maestro/results/maestro/MonteCarlo.8/31/MC/groupRunDataDir/netlist/../psf/mc1.mapping

Statistical parameters:
    Defined process parameters: 629
    Defined mismatch parameters (subckt based): 86
    Non-referenced mismatch parameters: 80
    Number of random variables: 707
    Gaussian truncation for process parameters: 4.00 sigma
    Gaussian truncation for mismatch parameters: 4.00 sigma


**** Skipping runs 1 to 30 for `mc1'


Opening the PSF file ../psf/mc1_tran.montecarlo ...

Opening the PSF file ../psf/mc1_finalTimeOP.montecarlo ...

Opening the PSF file ../psf/mc1_pss_td.montecarlo ...

Opening the PSF file ../psf/mc1_pss_fd.montecarlo ...

Opening the PSF file ../psf/mc1_modelParameter.montecarlo ...

Opening the PSF file ../psf/mc1_element.montecarlo ...

Opening the PSF file ../psf/mc1_outputParameter.montecarlo ...

Opening the PSF file ../psf/mc1_designParamVals.montecarlo ...

Opening the PSF file ../psf/mc1_primitives.montecarlo ...

Opening the PSF file ../psf/mc1_subckts.montecarlo ...

**** Performing monte carlo loop for `mc1'

31   0.00% 

Notice from spectre at iteration = 31 during transient analysis `tran', during Monte Carlo analysis `mc1'.
    No checklimit analysis defined for asserts. A default checklimit analysis 'SpectreChecklimitAnal' has been created with all asserts enabled.


*************************************************
Transient Analysis `tran': time = (0 s -> 100 ms)
*************************************************

Opening the PSF file ../psf/mc1_separate/031/tran.tran.tran ...

Notice from spectre at iteration = 31 during IC analysis, during transient analysis `tran', during Monte Carlo analysis `mc1'.
    Bad pivoting is found during DC analysis. Option dc_pivot_check=yes is recommended for possible improvement of convergence.
Warning from spectre at iteration = 31 during check, during IC analysis, during transient analysis `tran', during Monte Carlo analysis `mc1'.
    WARNING (CMI-2943): Parameter checks have been ignored because the valid value for parameter 'trise' could not be found in 'C1'.
    WARNING (CMI-2943): Parameter checks have been ignored because the valid value for parameter 'trise' could not be found in 'I0.C8<0>_turbo_m4.C1'.
    WARNING (CMI-2943): Parameter checks have been ignored because the valid value for parameter 'trise' could not be found in 'I0.C9<0>_turbo_m8.C1'.
    WARNING (CMI-2943): Parameter checks have been ignored because the valid value for parameter 'trise' could not be found in 'I0.C7<0>_turbo_m2.C1'.
    WARNING (CMI-2943): Parameter checks have been ignored because the valid value for parameter 'trise' could not be found in 'I0.R2.CM'.
        Further occurrences of this warning will be suppressed.

Convergence achieved in 18 iterations.
DC simulation time: CPU = 2.899 ms, elapsed = 2.90108 ms.
Important parameter values:
    start = 0 s
    outputstart = 0 s
    stop = 100 ms
    step = 100 us
    maxstep = 1 ms
    ic = all
    useprevic = no
    skipdc = no
    reltol = 100e-06
    abstol(V) = 1 uV
    abstol(I) = 1 pA
    temp = 27 C
    tnom = 27 C
    tempeffects = all
    errpreset = conservative_sigglobal
    method = gear2only
    lteratio = 10
    relref = sigglobal
    cmin = 0 F
    gmin = 1 pS
    rabsshort = 1 mOhm


Notice from spectre at iteration = 31 during transient analysis `tran', during Monte Carlo analysis `mc1'.
    Multithreading is disabled due to the size of the design being too small.


Output and IC/nodeset summary:
                 save   7       (current)
                 save   32      (voltage)

    tran: time = 2.907 ms    (2.91 %), step = 933.9 us     (934 m%)
    tran: time = 7.844 ms    (7.84 %), step = 1 ms            (1 %)
    tran: time = 13.29 ms    (13.3 %), step = 871 us       (871 m%)
    tran: time = 18.21 ms    (18.2 %), step = 1 ms            (1 %)
    tran: time = 22.73 ms    (22.7 %), step = 854.6 us     (855 m%)
    tran: time = 27.56 ms    (27.6 %), step = 1 ms            (1 %)
    tran: time = 33.04 ms      (33 %), step = 862.6 us     (863 m%)
    tran: time = 37.91 ms    (37.9 %), step = 1 ms            (1 %)
    tran: time = 43.35 ms    (43.4 %), step = 873.2 us     (873 m%)
    tran: time = 48.27 ms    (48.3 %), step = 1 ms            (1 %)
    tran: time = 52.79 ms    (52.8 %), step = 855.9 us     (856 m%)
    tran: time = 57.62 ms    (57.6 %), step = 1 ms            (1 %)
    tran: time = 63.1 ms     (63.1 %), step = 864.4 us     (864 m%)
    tran: time = 67.98 ms      (68 %), step = 1 ms            (1 %)
    tran: time = 72.54 ms    (72.5 %), step = 850.9 us     (851 m%)
    tran: time = 78.34 ms    (78.3 %), step = 1 ms            (1 %)
    tran: time = 82.84 ms    (82.8 %), step = 857.2 us     (857 m%)
    tran: time = 87.69 ms    (87.7 %), step = 1 ms            (1 %)
    tran: time = 93.16 ms    (93.2 %), step = 866.3 us     (866 m%)
    tran: time = 98.06 ms    (98.1 %), step = 1 ms            (1 %)
Number of accepted tran steps =             112

Maximum value achieved for any signal of each quantity: 
V: V(net2) = 3.3 V
I: I(V0:p) = 6.419 uA

~~~~~~~~~~~~~~~~~~~~~~~~~~~~~~~~~
Post-Transient Simulation Summary
~~~~~~~~~~~~~~~~~~~~~~~~~~~~~~~~~
   -   Non-default settings that could significantly slow down simulation
          errpreset = conservative_sigglobal, default moderate
~~~~~~~~~~~~~~~~~~~~~~~~~~~~~~~~~


During simulation, the CPU load for active processors is :
         0 (40.9 %)      1 (37.7 %)      2 (63.6 %)      3 (100.0 %)
         4 (76.1 %)      5 (37.6 %)      6 (59.6 %)      7 (80.5 %)
         8 (44.6 %)      9 (52.2 %)     10 (74.6 %)     11 (48.2 %)
        12 (58.5 %)     13 (70.8 %)     14 (63.6 %)     15 (28.8 %)
        16 (34.5 %)     17 (39.1 %)     18 (60.0 %)     19 (70.5 %)
        20 (62.8 %)     21 (65.8 %)     22 (58.9 %)     23 (98.3 %)
        24 (65.5 %)     25 (63.2 %)     26 (42.3 %)     27 (56.1 %)
        28 (87.1 %)     29 (41.1 %)     30 (50.9 %)     31 (34.2 %)
        32 (77.0 %)     33 (38.2 %)     34 (67.8 %)     35 (58.0 %)
        36 (51.8 %)     37 (73.3 %)     38 (55.8 %)     39 (33.0 %)
        40 (100.0 %)    41 (49.5 %)     42 (78.6 %)     43 (87.8 %)
        44 (38.9 %)     45 (56.1 %)     46 (95.6 %)     47 (52.6 %)
        Total: 2881.9%
Initial condition solution time: CPU = 2.944 ms, elapsed = 2.94709 ms.
Intrinsic tran analysis time:    CPU = 22.42 ms, elapsed = 23.5679 ms.
Total time required for tran analysis `tran': CPU = 100.205 ms, elapsed = 104.567 ms, util. = 95.8%.
Time accumulated: CPU = 699.485 ms, elapsed = 1.28899 s.
Peak resident memory used = 218 Mbytes.


Notice from spectre during transient analysis `tran', during Monte Carlo analysis `mc1'.
    12 warnings suppressed.

finalTimeOP: writing operating point information to rawfile.

Opening the PSF file ../psf/mc1_separate/031/finalTimeOP.info ...
Licensing Information:
[09:31:32.489298] Periodic Lic check successful


**************************************************
Periodic Steady-State Analysis `pss': fund = 50 Hz
**************************************************

Warning from spectre during check, during IC analysis, during periodic steady state analysis `pss', during Monte Carlo analysis `mc1'.
    WARNING (CMI-2943): Parameter checks have been ignored because the valid value for parameter 'trise' could not be found in 'C1'.
    WARNING (CMI-2943): Parameter checks have been ignored because the valid value for parameter 'trise' could not be found in 'I0.C8<0>_turbo_m4.C1'.
    WARNING (CMI-2943): Parameter checks have been ignored because the valid value for parameter 'trise' could not be found in 'I0.C9<0>_turbo_m8.C1'.
    WARNING (CMI-2943): Parameter checks have been ignored because the valid value for parameter 'trise' could not be found in 'I0.C7<0>_turbo_m2.C1'.
    WARNING (CMI-2943): Parameter checks have been ignored because the valid value for parameter 'trise' could not be found in 'I0.R2.CM'.
        Further occurrences of this warning will be suppressed.

Convergence achieved in 18 iterations.
DC simulation time: CPU = 2.55 ms, elapsed = 2.55585 ms.

==================================
pss `tstab': time = (0 s -> 20 ms)
==================================

Output and IC/nodeset summary:
                 save   7       (current)
                 save   32      (voltage)

Important parameter values in tstab integration:
    start = 0 s
    outputstart = 0 s
    stop = 20 ms
    period = 20 ms
    maxperiods = 20
    step = 20 us
    maxstep = 800 us
    ic = all
    useprevic = no
    skipdc = no
    reltol = 1e-03
    abstol(V) = 1 uV
    abstol(I) = 1 pA
    temp = 27 C
    tnom = 27 C
    tempeffects = all
    method = traponly
    lteratio = 3.5
    relref = sigglobal
    cmin = 0 F
    gmin = 1 pS
    rabsshort = 1 mOhm

    pss: time = 514.9 us    (2.57 %), step = 259.9 us      (1.3 %)
    pss: time = 2.187 ms    (10.9 %), step = 800 us          (4 %)
    pss: time = 2.987 ms    (14.9 %), step = 800 us          (4 %)
    pss: time = 3.787 ms    (18.9 %), step = 800 us          (4 %)
    pss: time = 4.587 ms    (22.9 %), step = 800 us          (4 %)
    pss: time = 6.187 ms    (30.9 %), step = 800 us          (4 %)
    pss: time = 6.987 ms    (34.9 %), step = 800 us          (4 %)
    pss: time = 7.787 ms    (38.9 %), step = 800 us          (4 %)
    pss: time = 8.587 ms    (42.9 %), step = 800 us          (4 %)
    pss: time = 10.19 ms    (50.9 %), step = 800 us          (4 %)
    pss: time = 10.99 ms    (54.9 %), step = 800 us          (4 %)
    pss: time = 11.79 ms    (58.9 %), step = 800 us          (4 %)
    pss: time = 12.59 ms    (62.9 %), step = 800 us          (4 %)
    pss: time = 14.19 ms    (70.9 %), step = 800 us          (4 %)
    pss: time = 14.99 ms    (74.9 %), step = 800 us          (4 %)
    pss: time = 15.79 ms    (78.9 %), step = 800 us          (4 %)
    pss: time = 16.59 ms    (82.9 %), step = 800 us          (4 %)
    pss: time = 18.19 ms    (90.9 %), step = 800 us          (4 %)
    pss: time = 18.99 ms    (94.9 %), step = 800 us          (4 %)
    pss: time = 20 ms        (100 %), step = 506.7 us     (2.53 %)
Total time required for tstab analysis `pss': CPU = 6.093 ms, elapsed = 6.09183 ms.
Time accumulated: CPU = 722.283 ms, elapsed = 1.33011 s.
Peak resident memory used = 219 Mbytes.

Conv norm = 29.6, max dV(vout_filt) = -10.1869 mV, took 0 s.

Important parameter values in pss iteration:
    start = 0 s
    outputstart = 0 s
    stop = 20 ms
    period = 20 ms
    maxperiods = 20
    steadyratio = 10e-03
    step = 20 us
    maxstep = 100 us
    ic = all
    useprevic = no
    skipdc = no
    reltol = 100e-06
    abstol(V) = 1 uV
    abstol(I) = 1 pA
    temp = 27 C
    tnom = 27 C
    tempeffects = all
    errpreset = conservative
    method = gear2only
    lteratio = 10
    relref = sigglobal
    cmin = 0 F
    gmin = 1 pS
    rabsshort = 1 mOhm


Notice from spectre during periodic steady state analysis `pss', during Monte Carlo analysis `mc1'.
    12 warnings suppressed.


============================
`pss': time = (0 s -> 20 ms)
============================
    pss: time = 512.5 us    (2.56 %), step = 12.5 us     (62.5 m%)
    pss: time = 1.512 ms    (7.56 %), step = 12.5 us     (62.5 m%)
    pss: time = 2.512 ms    (12.6 %), step = 12.5 us     (62.5 m%)
    pss: time = 3.512 ms    (17.6 %), step = 12.5 us     (62.5 m%)
    pss: time = 4.5 ms      (22.5 %), step = 12.5 us     (62.5 m%)
    pss: time = 5.5 ms      (27.5 %), step = 12.5 us     (62.5 m%)
    pss: time = 6.5 ms      (32.5 %), step = 12.5 us     (62.5 m%)
    pss: time = 7.5 ms      (37.5 %), step = 12.5 us     (62.5 m%)
    pss: time = 8.5 ms      (42.5 %), step = 12.5 us     (62.5 m%)
    pss: time = 9.5 ms      (47.5 %), step = 12.5 us     (62.5 m%)
    pss: time = 10.5 ms     (52.5 %), step = 12.5 us     (62.5 m%)
    pss: time = 11.5 ms     (57.5 %), step = 12.5 us     (62.5 m%)
    pss: time = 12.5 ms     (62.5 %), step = 12.5 us     (62.5 m%)
    pss: time = 13.5 ms     (67.5 %), step = 12.5 us     (62.5 m%)
    pss: time = 14.5 ms     (72.5 %), step = 12.5 us     (62.5 m%)
    pss: time = 15.5 ms     (77.5 %), step = 12.5 us     (62.5 m%)
    pss: time = 16.5 ms     (82.5 %), step = 12.5 us     (62.5 m%)
    pss: time = 17.5 ms     (87.5 %), step = 12.5 us     (62.5 m%)
    pss: time = 18.5 ms     (92.5 %), step = 12.5 us     (62.5 m%)
    pss: time = 19.51 ms    (97.6 %), step = 12.5 us     (62.5 m%)
Conv norm = 261e-03, max dV(vout_filt) = 25.797 uV, took 390 ms.


Opening the PSF file ../psf/mc1_separate/031/pss.td.pss ...

Opening the PSF file ../psf/mc1_separate/031/pss.fd.pss ...

============================
`pss': time = (0 s -> 20 ms)
============================
    pss: time = 512.5 us    (2.56 %), step = 12.5 us     (62.5 m%)
    pss: time = 1.512 ms    (7.56 %), step = 12.5 us     (62.5 m%)
    pss: time = 2.512 ms    (12.6 %), step = 12.5 us     (62.5 m%)
    pss: time = 3.512 ms    (17.6 %), step = 12.5 us     (62.5 m%)
    pss: time = 4.5 ms      (22.5 %), step = 12.5 us     (62.5 m%)
    pss: time = 5.5 ms      (27.5 %), step = 12.5 us     (62.5 m%)
    pss: time = 6.5 ms      (32.5 %), step = 12.5 us     (62.5 m%)
    pss: time = 7.5 ms      (37.5 %), step = 12.5 us     (62.5 m%)
    pss: time = 8.5 ms      (42.5 %), step = 12.5 us     (62.5 m%)
    pss: time = 9.5 ms      (47.5 %), step = 12.5 us     (62.5 m%)
    pss: time = 10.5 ms     (52.5 %), step = 12.5 us     (62.5 m%)
    pss: time = 11.5 ms     (57.5 %), step = 12.5 us     (62.5 m%)
    pss: time = 12.5 ms     (62.5 %), step = 12.5 us     (62.5 m%)
    pss: time = 13.5 ms     (67.5 %), step = 12.5 us     (62.5 m%)
    pss: time = 14.5 ms     (72.5 %), step = 12.5 us     (62.5 m%)
    pss: time = 15.5 ms     (77.5 %), step = 12.5 us     (62.5 m%)
    pss: time = 16.5 ms     (82.5 %), step = 12.5 us     (62.5 m%)
    pss: time = 17.5 ms     (87.5 %), step = 12.5 us     (62.5 m%)
    pss: time = 18.5 ms     (92.5 %), step = 12.5 us     (62.5 m%)
    pss: time = 19.51 ms    (97.6 %), step = 12.5 us     (62.5 m%)

Maximum value achieved for any signal of each quantity: 
V: V(net2) = 3.3 V
I: I(V0:p) = 6.419 uA
Initial condition solution time: CPU = 2.602 ms, elapsed = 2.60997 ms.
pss: The steady-state solution was achieved in 2 iterations.
Number of accepted pss steps =             1600
Total time required for pss analysis `pss': CPU = 829.275 ms, elapsed = 853.811 ms, util. = 97.1%.
Time accumulated: CPU = 1.53459 s, elapsed = 2.15096 s.
Peak resident memory used = 225 Mbytes.

modelParameter: writing model parameter values to rawfile.

Opening the PSF file ../psf/mc1_separate/031/modelParameter.info ...
element: writing instance parameter values to rawfile.

Opening the PSF file ../psf/mc1_separate/031/element.info ...
outputParameter: writing output parameter values to rawfile.

Opening the PSF file ../psf/mc1_separate/031/outputParameter.info ...
designParamVals: writing netlist parameters to rawfile.

Opening the PSFASCII file ../psf/mc1_separate/031/designParamVals.info ...
primitives: writing primitives to rawfile.

Opening the PSFASCII file ../psf/mc1_separate/031/primitives.info.primitives ...
subckts: writing subcircuits to rawfile.

Opening the PSFASCII file ../psf/mc1_separate/031/subckts.info.subckts ...
32  25.00% 

*************************************************
Transient Analysis `tran': time = (0 s -> 100 ms)
*************************************************

Opening the PSF file ../psf/mc1_separate/032/tran.tran.tran ...

Notice from spectre during IC analysis, during transient analysis `tran', during Monte Carlo analysis `mc1'.
    Bad pivoting is found during DC analysis. Option dc_pivot_check=yes is recommended for possible improvement of convergence.
Warning from spectre during check, during IC analysis, during transient analysis `tran', during Monte Carlo analysis `mc1'.
    WARNING (CMI-2943): Parameter checks have been ignored because the valid value for parameter 'trise' could not be found in 'C1'.
    WARNING (CMI-2943): Parameter checks have been ignored because the valid value for parameter 'trise' could not be found in 'I0.C8<0>_turbo_m4.C1'.
    WARNING (CMI-2943): Parameter checks have been ignored because the valid value for parameter 'trise' could not be found in 'I0.C9<0>_turbo_m8.C1'.
    WARNING (CMI-2943): Parameter checks have been ignored because the valid value for parameter 'trise' could not be found in 'I0.C7<0>_turbo_m2.C1'.
    WARNING (CMI-2943): Parameter checks have been ignored because the valid value for parameter 'trise' could not be found in 'I0.R2.CM'.
        Further occurrences of this warning will be suppressed.

Convergence achieved in 20 iterations.
DC simulation time: CPU = 2.457 ms, elapsed = 2.4569 ms.
Important parameter values:
    start = 0 s
    outputstart = 0 s
    stop = 100 ms
    step = 100 us
    maxstep = 1 ms
    ic = all
    useprevic = no
    skipdc = no
    reltol = 100e-06
    abstol(V) = 1 uV
    abstol(I) = 1 pA
    temp = 27 C
    tnom = 27 C
    tempeffects = all
    errpreset = conservative_sigglobal
    method = gear2only
    lteratio = 10
    relref = sigglobal
    cmin = 0 F
    gmin = 1 pS
    rabsshort = 1 mOhm


Notice from spectre during transient analysis `tran', during Monte Carlo analysis `mc1'.
    Multithreading is disabled due to the size of the design being too small.


Output and IC/nodeset summary:
                 save   7       (current)
                 save   32      (voltage)

    tran: time = 2.909 ms    (2.91 %), step = 934.9 us     (935 m%)
    tran: time = 7.846 ms    (7.85 %), step = 1 ms            (1 %)
    tran: time = 13.29 ms    (13.3 %), step = 871.1 us     (871 m%)
    tran: time = 18.21 ms    (18.2 %), step = 1 ms            (1 %)
    tran: time = 22.73 ms    (22.7 %), step = 854.7 us     (855 m%)
    tran: time = 27.56 ms    (27.6 %), step = 1 ms            (1 %)
    tran: time = 33.04 ms      (33 %), step = 862.7 us     (863 m%)
    tran: time = 37.92 ms    (37.9 %), step = 1 ms            (1 %)
    tran: time = 43.36 ms    (43.4 %), step = 873.4 us     (873 m%)
    tran: time = 48.28 ms    (48.3 %), step = 1 ms            (1 %)
    tran: time = 52.79 ms    (52.8 %), step = 856 us       (856 m%)
    tran: time = 57.63 ms    (57.6 %), step = 1 ms            (1 %)
    tran: time = 63.11 ms    (63.1 %), step = 864.6 us     (865 m%)
    tran: time = 67.99 ms      (68 %), step = 1 ms            (1 %)
    tran: time = 72.54 ms    (72.5 %), step = 851 us       (851 m%)
    tran: time = 78.34 ms    (78.3 %), step = 1 ms            (1 %)
    tran: time = 82.85 ms    (82.8 %), step = 857.4 us     (857 m%)
    tran: time = 87.69 ms    (87.7 %), step = 1 ms            (1 %)
    tran: time = 93.17 ms    (93.2 %), step = 866.6 us     (867 m%)
    tran: time = 98.06 ms    (98.1 %), step = 1 ms            (1 %)
Number of accepted tran steps =             112

Maximum value achieved for any signal of each quantity: 
V: V(net2) = 3.3 V
I: I(V0:p) = 6.361 uA

~~~~~~~~~~~~~~~~~~~~~~~~~~~~~~~~~
Post-Transient Simulation Summary
~~~~~~~~~~~~~~~~~~~~~~~~~~~~~~~~~
   -   Non-default settings that could significantly slow down simulation
          errpreset = conservative_sigglobal, default moderate
~~~~~~~~~~~~~~~~~~~~~~~~~~~~~~~~~


During simulation, the CPU load for active processors is :
         0 (62.5 %)      1 (56.0 %)      2 (64.3 %)      3 (100.0 %)
         4 (78.5 %)      5 (56.4 %)      6 (54.0 %)      7 (74.5 %)
         8 (65.4 %)      9 (64.7 %)     10 (72.9 %)     11 (48.8 %)
        12 (53.9 %)     13 (83.3 %)     14 (68.7 %)     15 (45.8 %)
        16 (57.1 %)     17 (55.3 %)     18 (52.1 %)     19 (84.2 %)
        20 (77.9 %)     21 (82.2 %)     22 (52.6 %)     23 (81.9 %)
        24 (69.4 %)     25 (75.5 %)     26 (54.4 %)     27 (70.0 %)
        28 (70.8 %)     29 (46.3 %)     30 (72.8 %)     31 (36.6 %)
        32 (72.0 %)     33 (53.3 %)     34 (59.4 %)     35 (69.6 %)
        36 (56.3 %)     37 (65.6 %)     38 (58.1 %)     39 (45.5 %)
        40 (92.2 %)     41 (61.0 %)     42 (72.0 %)     43 (80.2 %)
        44 (64.4 %)     45 (63.8 %)     46 (84.0 %)     47 (61.9 %)
        Total: 3148.5%
Initial condition solution time: CPU = 2.501 ms, elapsed = 2.50292 ms.
Intrinsic tran analysis time:    CPU = 21.215 ms, elapsed = 22.445 ms.
Total time required for tran analysis `tran': CPU = 26.071 ms, elapsed = 27.8759 ms, util. = 93.5%.
Time accumulated: CPU = 1.5996 s, elapsed = 2.22679 s.
Peak resident memory used = 225 Mbytes.


Notice from spectre during transient analysis `tran', during Monte Carlo analysis `mc1'.
    12 warnings suppressed.

finalTimeOP: writing operating point information to rawfile.

Opening the PSF file ../psf/mc1_separate/032/finalTimeOP.info ...
Licensing Information:
[09:31:33.425051] Periodic Lic check successful


**************************************************
Periodic Steady-State Analysis `pss': fund = 50 Hz
**************************************************

Warning from spectre during check, during IC analysis, during periodic steady state analysis `pss', during Monte Carlo analysis `mc1'.
    WARNING (CMI-2943): Parameter checks have been ignored because the valid value for parameter 'trise' could not be found in 'C1'.
    WARNING (CMI-2943): Parameter checks have been ignored because the valid value for parameter 'trise' could not be found in 'I0.C8<0>_turbo_m4.C1'.
    WARNING (CMI-2943): Parameter checks have been ignored because the valid value for parameter 'trise' could not be found in 'I0.C9<0>_turbo_m8.C1'.
    WARNING (CMI-2943): Parameter checks have been ignored because the valid value for parameter 'trise' could not be found in 'I0.C7<0>_turbo_m2.C1'.
    WARNING (CMI-2943): Parameter checks have been ignored because the valid value for parameter 'trise' could not be found in 'I0.R2.CM'.
        Further occurrences of this warning will be suppressed.

Convergence achieved in 20 iterations.
DC simulation time: CPU = 2.721 ms, elapsed = 2.72202 ms.

==================================
pss `tstab': time = (0 s -> 20 ms)
==================================

Output and IC/nodeset summary:
                 save   7       (current)
                 save   32      (voltage)

Important parameter values in tstab integration:
    start = 0 s
    outputstart = 0 s
    stop = 20 ms
    period = 20 ms
    maxperiods = 20
    step = 20 us
    maxstep = 800 us
    ic = all
    useprevic = no
    skipdc = no
    reltol = 1e-03
    abstol(V) = 1 uV
    abstol(I) = 1 pA
    temp = 27 C
    tnom = 27 C
    tempeffects = all
    method = traponly
    lteratio = 3.5
    relref = sigglobal
    cmin = 0 F
    gmin = 1 pS
    rabsshort = 1 mOhm

    pss: time = 524.5 us    (2.62 %), step = 265.4 us     (1.33 %)
    pss: time = 2.204 ms      (11 %), step = 800 us          (4 %)
    pss: time = 3.004 ms      (15 %), step = 800 us          (4 %)
    pss: time = 3.804 ms      (19 %), step = 800 us          (4 %)
    pss: time = 4.604 ms      (23 %), step = 800 us          (4 %)
    pss: time = 6.204 ms      (31 %), step = 800 us          (4 %)
    pss: time = 7.004 ms      (35 %), step = 800 us          (4 %)
    pss: time = 7.804 ms      (39 %), step = 800 us          (4 %)
    pss: time = 8.604 ms      (43 %), step = 800 us          (4 %)
    pss: time = 10.2 ms       (51 %), step = 800 us          (4 %)
    pss: time = 11 ms         (55 %), step = 800 us          (4 %)
    pss: time = 11.8 ms       (59 %), step = 800 us          (4 %)
    pss: time = 12.6 ms       (63 %), step = 800 us          (4 %)
    pss: time = 14.2 ms       (71 %), step = 800 us          (4 %)
    pss: time = 15 ms         (75 %), step = 800 us          (4 %)
    pss: time = 15.8 ms       (79 %), step = 800 us          (4 %)
    pss: time = 16.6 ms       (83 %), step = 800 us          (4 %)
    pss: time = 18.2 ms       (91 %), step = 800 us          (4 %)
    pss: time = 19 ms         (95 %), step = 800 us          (4 %)
    pss: time = 19.5 ms     (97.5 %), step = 497.8 us     (2.49 %)
Total time required for tstab analysis `pss': CPU = 6.036 ms, elapsed = 6.03604 ms.
Time accumulated: CPU = 1.62468 s, elapsed = 2.26278 s.
Peak resident memory used = 225 Mbytes.

Conv norm = 29.8, max dV(vout_filt) = -10.256 mV, took 10 ms.

Important parameter values in pss iteration:
    start = 0 s
    outputstart = 0 s
    stop = 20 ms
    period = 20 ms
    maxperiods = 20
    steadyratio = 10e-03
    step = 20 us
    maxstep = 100 us
    ic = all
    useprevic = no
    skipdc = no
    reltol = 100e-06
    abstol(V) = 1 uV
    abstol(I) = 1 pA
    temp = 27 C
    tnom = 27 C
    tempeffects = all
    errpreset = conservative
    method = gear2only
    lteratio = 10
    relref = sigglobal
    cmin = 0 F
    gmin = 1 pS
    rabsshort = 1 mOhm


Notice from spectre during periodic steady state analysis `pss', during Monte Carlo analysis `mc1'.
    12 warnings suppressed.


============================
`pss': time = (0 s -> 20 ms)
============================
    pss: time = 512.5 us    (2.56 %), step = 12.5 us     (62.5 m%)
    pss: time = 1.512 ms    (7.56 %), step = 12.5 us     (62.5 m%)
    pss: time = 2.512 ms    (12.6 %), step = 12.5 us     (62.5 m%)
    pss: time = 3.512 ms    (17.6 %), step = 12.5 us     (62.5 m%)
    pss: time = 4.5 ms      (22.5 %), step = 12.5 us     (62.5 m%)
    pss: time = 5.5 ms      (27.5 %), step = 12.5 us     (62.5 m%)
    pss: time = 6.5 ms      (32.5 %), step = 12.5 us     (62.5 m%)
    pss: time = 7.5 ms      (37.5 %), step = 12.5 us     (62.5 m%)
    pss: time = 8.5 ms      (42.5 %), step = 12.5 us     (62.5 m%)
    pss: time = 9.5 ms      (47.5 %), step = 12.5 us     (62.5 m%)
    pss: time = 10.5 ms     (52.5 %), step = 12.5 us     (62.5 m%)
    pss: time = 11.5 ms     (57.5 %), step = 12.5 us     (62.5 m%)
    pss: time = 12.5 ms     (62.5 %), step = 12.5 us     (62.5 m%)
    pss: time = 13.5 ms     (67.5 %), step = 12.5 us     (62.5 m%)
    pss: time = 14.5 ms     (72.5 %), step = 12.5 us     (62.5 m%)
    pss: time = 15.5 ms     (77.5 %), step = 12.5 us     (62.5 m%)
    pss: time = 16.5 ms     (82.5 %), step = 12.5 us     (62.5 m%)
    pss: time = 17.5 ms     (87.5 %), step = 12.5 us     (62.5 m%)
    pss: time = 18.5 ms     (92.5 %), step = 12.5 us     (62.5 m%)
    pss: time = 19.51 ms    (97.6 %), step = 12.5 us     (62.5 m%)
Conv norm = 265e-03, max dV(vout_filt) = 26.1793 uV, took 370 ms.


Opening the PSF file ../psf/mc1_separate/032/pss.td.pss ...

Opening the PSF file ../psf/mc1_separate/032/pss.fd.pss ...

============================
`pss': time = (0 s -> 20 ms)
============================
    pss: time = 512.5 us    (2.56 %), step = 12.5 us     (62.5 m%)
    pss: time = 1.512 ms    (7.56 %), step = 12.5 us     (62.5 m%)
    pss: time = 2.512 ms    (12.6 %), step = 12.5 us     (62.5 m%)
    pss: time = 3.512 ms    (17.6 %), step = 12.5 us     (62.5 m%)
    pss: time = 4.5 ms      (22.5 %), step = 12.5 us     (62.5 m%)
    pss: time = 5.5 ms      (27.5 %), step = 12.5 us     (62.5 m%)
    pss: time = 6.5 ms      (32.5 %), step = 12.5 us     (62.5 m%)
    pss: time = 7.5 ms      (37.5 %), step = 12.5 us     (62.5 m%)
    pss: time = 8.5 ms      (42.5 %), step = 12.5 us     (62.5 m%)
    pss: time = 9.5 ms      (47.5 %), step = 12.5 us     (62.5 m%)
    pss: time = 10.5 ms     (52.5 %), step = 12.5 us     (62.5 m%)
    pss: time = 11.5 ms     (57.5 %), step = 12.5 us     (62.5 m%)
    pss: time = 12.5 ms     (62.5 %), step = 12.5 us     (62.5 m%)
    pss: time = 13.5 ms     (67.5 %), step = 12.5 us     (62.5 m%)
    pss: time = 14.5 ms     (72.5 %), step = 12.5 us     (62.5 m%)
    pss: time = 15.5 ms     (77.5 %), step = 12.5 us     (62.5 m%)
    pss: time = 16.5 ms     (82.5 %), step = 12.5 us     (62.5 m%)
    pss: time = 17.5 ms     (87.5 %), step = 12.5 us     (62.5 m%)
    pss: time = 18.5 ms     (92.5 %), step = 12.5 us     (62.5 m%)
    pss: time = 19.51 ms    (97.6 %), step = 12.5 us     (62.5 m%)

Maximum value achieved for any signal of each quantity: 
V: V(net2) = 3.3 V
I: I(V0:p) = 6.361 uA
Initial condition solution time: CPU = 2.769 ms, elapsed = 2.77209 ms.
pss: The steady-state solution was achieved in 2 iterations.
Number of accepted pss steps =             1600
Total time required for pss analysis `pss': CPU = 812.833 ms, elapsed = 825.327 ms, util. = 98.5%.
Time accumulated: CPU = 2.41744 s, elapsed = 3.05932 s.
Peak resident memory used = 226 Mbytes.

modelParameter: writing model parameter values to rawfile.

Opening the PSF file ../psf/mc1_separate/032/modelParameter.info ...
element: writing instance parameter values to rawfile.

Opening the PSF file ../psf/mc1_separate/032/element.info ...
outputParameter: writing output parameter values to rawfile.

Opening the PSF file ../psf/mc1_separate/032/outputParameter.info ...
designParamVals: writing netlist parameters to rawfile.

Opening the PSFASCII file ../psf/mc1_separate/032/designParamVals.info ...
primitives: writing primitives to rawfile.

Opening the PSFASCII file ../psf/mc1_separate/032/primitives.info.primitives ...
subckts: writing subcircuits to rawfile.

Opening the PSFASCII file ../psf/mc1_separate/032/subckts.info.subckts ...
    mc1: iteration = 32            (25 %), step = 1              (25 %)
33  50.00% 

*************************************************
Transient Analysis `tran': time = (0 s -> 100 ms)
*************************************************

Opening the PSF file ../psf/mc1_separate/033/tran.tran.tran ...

Notice from spectre during IC analysis, during transient analysis `tran', during Monte Carlo analysis `mc1'.
    Bad pivoting is found during DC analysis. Option dc_pivot_check=yes is recommended for possible improvement of convergence.
Warning from spectre during check, during IC analysis, during transient analysis `tran', during Monte Carlo analysis `mc1'.
    WARNING (CMI-2943): Parameter checks have been ignored because the valid value for parameter 'trise' could not be found in 'C1'.
    WARNING (CMI-2943): Parameter checks have been ignored because the valid value for parameter 'trise' could not be found in 'I0.C8<0>_turbo_m4.C1'.
    WARNING (CMI-2943): Parameter checks have been ignored because the valid value for parameter 'trise' could not be found in 'I0.C9<0>_turbo_m8.C1'.
    WARNING (CMI-2943): Parameter checks have been ignored because the valid value for parameter 'trise' could not be found in 'I0.C7<0>_turbo_m2.C1'.
    WARNING (CMI-2943): Parameter checks have been ignored because the valid value for parameter 'trise' could not be found in 'I0.R2.CM'.
        Further occurrences of this warning will be suppressed.

Convergence achieved in 18 iterations.
DC simulation time: CPU = 2.416 ms, elapsed = 2.4159 ms.
Important parameter values:
    start = 0 s
    outputstart = 0 s
    stop = 100 ms
    step = 100 us
    maxstep = 1 ms
    ic = all
    useprevic = no
    skipdc = no
    reltol = 100e-06
    abstol(V) = 1 uV
    abstol(I) = 1 pA
    temp = 27 C
    tnom = 27 C
    tempeffects = all
    errpreset = conservative_sigglobal
    method = gear2only
    lteratio = 10
    relref = sigglobal
    cmin = 0 F
    gmin = 1 pS
    rabsshort = 1 mOhm


Notice from spectre during transient analysis `tran', during Monte Carlo analysis `mc1'.
    Multithreading is disabled due to the size of the design being too small.


Output and IC/nodeset summary:
                 save   7       (current)
                 save   32      (voltage)

    tran: time = 2.909 ms    (2.91 %), step = 935 us       (935 m%)
    tran: time = 7.846 ms    (7.85 %), step = 1 ms            (1 %)
    tran: time = 13.29 ms    (13.3 %), step = 871.1 us     (871 m%)
    tran: time = 18.21 ms    (18.2 %), step = 1 ms            (1 %)
    tran: time = 22.73 ms    (22.7 %), step = 854.7 us     (855 m%)
    tran: time = 27.56 ms    (27.6 %), step = 1 ms            (1 %)
    tran: time = 33.04 ms      (33 %), step = 862.7 us     (863 m%)
    tran: time = 37.92 ms    (37.9 %), step = 1 ms            (1 %)
    tran: time = 43.36 ms    (43.4 %), step = 873.4 us     (873 m%)
    tran: time = 48.28 ms    (48.3 %), step = 1 ms            (1 %)
    tran: time = 52.79 ms    (52.8 %), step = 856 us       (856 m%)
    tran: time = 57.62 ms    (57.6 %), step = 1 ms            (1 %)
    tran: time = 63.1 ms     (63.1 %), step = 864.5 us     (865 m%)
    tran: time = 67.99 ms      (68 %), step = 1 ms            (1 %)
    tran: time = 72.54 ms    (72.5 %), step = 851 us       (851 m%)
    tran: time = 78.34 ms    (78.3 %), step = 1 ms            (1 %)
    tran: time = 82.85 ms    (82.8 %), step = 857.4 us     (857 m%)
    tran: time = 87.69 ms    (87.7 %), step = 1 ms            (1 %)
    tran: time = 93.17 ms    (93.2 %), step = 866.5 us     (867 m%)
    tran: time = 98.06 ms    (98.1 %), step = 1 ms            (1 %)
Number of accepted tran steps =             112

Maximum value achieved for any signal of each quantity: 
V: V(net2) = 3.3 V
I: I(V0:p) = 6.497 uA

~~~~~~~~~~~~~~~~~~~~~~~~~~~~~~~~~
Post-Transient Simulation Summary
~~~~~~~~~~~~~~~~~~~~~~~~~~~~~~~~~
   -   Non-default settings that could significantly slow down simulation
          errpreset = conservative_sigglobal, default moderate
~~~~~~~~~~~~~~~~~~~~~~~~~~~~~~~~~


During simulation, the CPU load for active processors is :
         0 (58.9 %)      1 (55.9 %)      2 (65.4 %)      3 (100.0 %)
         4 (69.2 %)      5 (60.9 %)      6 (55.1 %)      7 (71.4 %)
         8 (68.4 %)      9 (68.4 %)     10 (79.9 %)     11 (52.3 %)
        12 (55.7 %)     13 (87.3 %)     14 (69.0 %)     15 (61.2 %)
        16 (51.6 %)     17 (66.7 %)     18 (53.2 %)     19 (83.6 %)
        20 (77.4 %)     21 (87.5 %)     22 (65.8 %)     23 (74.3 %)
        24 (61.3 %)     25 (75.9 %)     26 (61.5 %)     27 (72.0 %)
        28 (67.1 %)     29 (53.3 %)     30 (68.7 %)     31 (41.0 %)
        32 (63.7 %)     33 (66.1 %)     34 (58.3 %)     35 (67.5 %)
        36 (68.2 %)     37 (69.2 %)     38 (61.6 %)     39 (38.9 %)
        40 (71.9 %)     41 (48.0 %)     42 (59.1 %)     43 (85.3 %)
        44 (74.8 %)     45 (69.1 %)     46 (84.2 %)     47 (70.4 %)
        Total: 3196.4%
Initial condition solution time: CPU = 2.456 ms, elapsed = 2.45786 ms.
Intrinsic tran analysis time:    CPU = 21.238 ms, elapsed = 22.2859 ms.
Total time required for tran analysis `tran': CPU = 25.986 ms, elapsed = 27.8611 ms, util. = 93.3%.
Time accumulated: CPU = 2.47812 s, elapsed = 3.13181 s.
Peak resident memory used = 226 Mbytes.


Notice from spectre during transient analysis `tran', during Monte Carlo analysis `mc1'.
    12 warnings suppressed.

finalTimeOP: writing operating point information to rawfile.

Opening the PSF file ../psf/mc1_separate/033/finalTimeOP.info ...
Licensing Information:
[09:31:34.329434] Periodic Lic check successful


**************************************************
Periodic Steady-State Analysis `pss': fund = 50 Hz
**************************************************

Notice from spectre during IC analysis, during periodic steady state analysis `pss', during Monte Carlo analysis `mc1'.
    Bad pivoting is found during DC analysis. Option dc_pivot_check=yes is recommended for possible improvement of convergence.
Warning from spectre during check, during IC analysis, during periodic steady state analysis `pss', during Monte Carlo analysis `mc1'.
    WARNING (CMI-2943): Parameter checks have been ignored because the valid value for parameter 'trise' could not be found in 'C1'.
    WARNING (CMI-2943): Parameter checks have been ignored because the valid value for parameter 'trise' could not be found in 'I0.C8<0>_turbo_m4.C1'.
    WARNING (CMI-2943): Parameter checks have been ignored because the valid value for parameter 'trise' could not be found in 'I0.C9<0>_turbo_m8.C1'.
    WARNING (CMI-2943): Parameter checks have been ignored because the valid value for parameter 'trise' could not be found in 'I0.C7<0>_turbo_m2.C1'.
    WARNING (CMI-2943): Parameter checks have been ignored because the valid value for parameter 'trise' could not be found in 'I0.R2.CM'.
        Further occurrences of this warning will be suppressed.

Convergence achieved in 18 iterations.
DC simulation time: CPU = 2.612 ms, elapsed = 2.79307 ms.

==================================
pss `tstab': time = (0 s -> 20 ms)
==================================

Output and IC/nodeset summary:
                 save   7       (current)
                 save   32      (voltage)

Important parameter values in tstab integration:
    start = 0 s
    outputstart = 0 s
    stop = 20 ms
    period = 20 ms
    maxperiods = 20
    step = 20 us
    maxstep = 800 us
    ic = all
    useprevic = no
    skipdc = no
    reltol = 1e-03
    abstol(V) = 1 uV
    abstol(I) = 1 pA
    temp = 27 C
    tnom = 27 C
    tempeffects = all
    method = traponly
    lteratio = 3.5
    relref = sigglobal
    cmin = 0 F
    gmin = 1 pS
    rabsshort = 1 mOhm

    pss: time = 525.5 us    (2.63 %), step = 266 us       (1.33 %)
    pss: time = 2.206 ms      (11 %), step = 800 us          (4 %)
    pss: time = 3.006 ms      (15 %), step = 800 us          (4 %)
    pss: time = 3.806 ms      (19 %), step = 800 us          (4 %)
    pss: time = 4.606 ms      (23 %), step = 800 us          (4 %)
    pss: time = 6.206 ms      (31 %), step = 800 us          (4 %)
    pss: time = 7.006 ms      (35 %), step = 800 us          (4 %)
    pss: time = 7.806 ms      (39 %), step = 800 us          (4 %)
    pss: time = 8.606 ms      (43 %), step = 800 us          (4 %)
    pss: time = 10.21 ms      (51 %), step = 800 us          (4 %)
    pss: time = 11.01 ms      (55 %), step = 800 us          (4 %)
    pss: time = 11.81 ms      (59 %), step = 800 us          (4 %)
    pss: time = 12.61 ms      (63 %), step = 800 us          (4 %)
    pss: time = 14.21 ms      (71 %), step = 800 us          (4 %)
    pss: time = 15.01 ms      (75 %), step = 800 us          (4 %)
    pss: time = 15.81 ms      (79 %), step = 800 us          (4 %)
    pss: time = 16.61 ms      (83 %), step = 800 us          (4 %)
    pss: time = 18.21 ms      (91 %), step = 800 us          (4 %)
    pss: time = 19.01 ms      (95 %), step = 800 us          (4 %)
    pss: time = 19.5 ms     (97.5 %), step = 496.9 us     (2.48 %)
Total time required for tstab analysis `pss': CPU = 6.517 ms, elapsed = 6.88601 ms.
Time accumulated: CPU = 2.50033 s, elapsed = 3.16903 s.
Peak resident memory used = 226 Mbytes.

Conv norm = 29.9, max dV(vout_filt) = -10.2809 mV, took 20 ms.

Important parameter values in pss iteration:
    start = 0 s
    outputstart = 0 s
    stop = 20 ms
    period = 20 ms
    maxperiods = 20
    steadyratio = 10e-03
    step = 20 us
    maxstep = 100 us
    ic = all
    useprevic = no
    skipdc = no
    reltol = 100e-06
    abstol(V) = 1 uV
    abstol(I) = 1 pA
    temp = 27 C
    tnom = 27 C
    tempeffects = all
    errpreset = conservative
    method = gear2only
    lteratio = 10
    relref = sigglobal
    cmin = 0 F
    gmin = 1 pS
    rabsshort = 1 mOhm


Notice from spectre during periodic steady state analysis `pss', during Monte Carlo analysis `mc1'.
    12 warnings suppressed.


============================
`pss': time = (0 s -> 20 ms)
============================
    pss: time = 512.5 us    (2.56 %), step = 12.5 us     (62.5 m%)
    pss: time = 1.512 ms    (7.56 %), step = 12.5 us     (62.5 m%)
    pss: time = 2.512 ms    (12.6 %), step = 12.5 us     (62.5 m%)
    pss: time = 3.512 ms    (17.6 %), step = 12.5 us     (62.5 m%)
    pss: time = 4.5 ms      (22.5 %), step = 12.5 us     (62.5 m%)
    pss: time = 5.5 ms      (27.5 %), step = 12.5 us     (62.5 m%)
    pss: time = 6.5 ms      (32.5 %), step = 12.5 us     (62.5 m%)
    pss: time = 7.5 ms      (37.5 %), step = 12.5 us     (62.5 m%)
    pss: time = 8.5 ms      (42.5 %), step = 12.5 us     (62.5 m%)
    pss: time = 9.5 ms      (47.5 %), step = 12.5 us     (62.5 m%)
    pss: time = 10.5 ms     (52.5 %), step = 12.5 us     (62.5 m%)
    pss: time = 11.5 ms     (57.5 %), step = 12.5 us     (62.5 m%)
    pss: time = 12.5 ms     (62.5 %), step = 12.5 us     (62.5 m%)
    pss: time = 13.5 ms     (67.5 %), step = 12.5 us     (62.5 m%)
    pss: time = 14.5 ms     (72.5 %), step = 12.5 us     (62.5 m%)
    pss: time = 15.5 ms     (77.5 %), step = 12.5 us     (62.5 m%)
    pss: time = 16.5 ms     (82.5 %), step = 12.5 us     (62.5 m%)
    pss: time = 17.5 ms     (87.5 %), step = 12.5 us     (62.5 m%)
    pss: time = 18.5 ms     (92.5 %), step = 12.5 us     (62.5 m%)
    pss: time = 19.51 ms    (97.6 %), step = 12.5 us     (62.5 m%)
Conv norm = 137e-03, max dV(vout) = -13.5575 uV, took 380 ms.


Opening the PSF file ../psf/mc1_separate/033/pss.td.pss ...

Opening the PSF file ../psf/mc1_separate/033/pss.fd.pss ...

============================
`pss': time = (0 s -> 20 ms)
============================
    pss: time = 512.5 us    (2.56 %), step = 12.5 us     (62.5 m%)
    pss: time = 1.512 ms    (7.56 %), step = 12.5 us     (62.5 m%)
    pss: time = 2.512 ms    (12.6 %), step = 12.5 us     (62.5 m%)
    pss: time = 3.512 ms    (17.6 %), step = 12.5 us     (62.5 m%)
    pss: time = 4.5 ms      (22.5 %), step = 12.5 us     (62.5 m%)
    pss: time = 5.5 ms      (27.5 %), step = 12.5 us     (62.5 m%)
    pss: time = 6.5 ms      (32.5 %), step = 12.5 us     (62.5 m%)
    pss: time = 7.5 ms      (37.5 %), step = 12.5 us     (62.5 m%)
    pss: time = 8.5 ms      (42.5 %), step = 12.5 us     (62.5 m%)
    pss: time = 9.5 ms      (47.5 %), step = 12.5 us     (62.5 m%)
    pss: time = 10.5 ms     (52.5 %), step = 12.5 us     (62.5 m%)
    pss: time = 11.5 ms     (57.5 %), step = 12.5 us     (62.5 m%)
    pss: time = 12.5 ms     (62.5 %), step = 12.5 us     (62.5 m%)
    pss: time = 13.5 ms     (67.5 %), step = 12.5 us     (62.5 m%)
    pss: time = 14.5 ms     (72.5 %), step = 12.5 us     (62.5 m%)
    pss: time = 15.5 ms     (77.5 %), step = 12.5 us     (62.5 m%)
    pss: time = 16.5 ms     (82.5 %), step = 12.5 us     (62.5 m%)
    pss: time = 17.5 ms     (87.5 %), step = 12.5 us     (62.5 m%)
    pss: time = 18.5 ms     (92.5 %), step = 12.5 us     (62.5 m%)
    pss: time = 19.51 ms    (97.6 %), step = 12.5 us     (62.5 m%)

Maximum value achieved for any signal of each quantity: 
V: V(net2) = 3.3 V
I: I(V0:p) = 6.497 uA
Initial condition solution time: CPU = 2.673 ms, elapsed = 2.89202 ms.
pss: The steady-state solution was achieved in 2 iterations.
Number of accepted pss steps =             1600
Total time required for pss analysis `pss': CPU = 825.129 ms, elapsed = 845.683 ms, util. = 97.6%.
Time accumulated: CPU = 3.30805 s, elapsed = 3.98425 s.
Peak resident memory used = 226 Mbytes.

modelParameter: writing model parameter values to rawfile.

Opening the PSF file ../psf/mc1_separate/033/modelParameter.info ...
element: writing instance parameter values to rawfile.

Opening the PSF file ../psf/mc1_separate/033/element.info ...
outputParameter: writing output parameter values to rawfile.

Opening the PSF file ../psf/mc1_separate/033/outputParameter.info ...
designParamVals: writing netlist parameters to rawfile.

Opening the PSFASCII file ../psf/mc1_separate/033/designParamVals.info ...
primitives: writing primitives to rawfile.

Opening the PSFASCII file ../psf/mc1_separate/033/primitives.info.primitives ...
subckts: writing subcircuits to rawfile.

Opening the PSFASCII file ../psf/mc1_separate/033/subckts.info.subckts ...
    mc1: iteration = 33            (50 %), step = 1              (25 %)
34  75.00% 

*************************************************
Transient Analysis `tran': time = (0 s -> 100 ms)
*************************************************

Opening the PSF file ../psf/mc1_separate/034/tran.tran.tran ...

Notice from spectre during IC analysis, during transient analysis `tran', during Monte Carlo analysis `mc1'.
    Bad pivoting is found during DC analysis. Option dc_pivot_check=yes is recommended for possible improvement of convergence.
Warning from spectre during check, during IC analysis, during transient analysis `tran', during Monte Carlo analysis `mc1'.
    WARNING (CMI-2943): Parameter checks have been ignored because the valid value for parameter 'trise' could not be found in 'C1'.
    WARNING (CMI-2943): Parameter checks have been ignored because the valid value for parameter 'trise' could not be found in 'I0.C8<0>_turbo_m4.C1'.
    WARNING (CMI-2943): Parameter checks have been ignored because the valid value for parameter 'trise' could not be found in 'I0.C9<0>_turbo_m8.C1'.
    WARNING (CMI-2943): Parameter checks have been ignored because the valid value for parameter 'trise' could not be found in 'I0.C7<0>_turbo_m2.C1'.
    WARNING (CMI-2943): Parameter checks have been ignored because the valid value for parameter 'trise' could not be found in 'I0.R2.CM'.
        Further occurrences of this warning will be suppressed.

Convergence achieved in 16 iterations.
DC simulation time: CPU = 2.549 ms, elapsed = 2.54893 ms.
Important parameter values:
    start = 0 s
    outputstart = 0 s
    stop = 100 ms
    step = 100 us
    maxstep = 1 ms
    ic = all
    useprevic = no
    skipdc = no
    reltol = 100e-06
    abstol(V) = 1 uV
    abstol(I) = 1 pA
    temp = 27 C
    tnom = 27 C
    tempeffects = all
    errpreset = conservative_sigglobal
    method = gear2only
    lteratio = 10
    relref = sigglobal
    cmin = 0 F
    gmin = 1 pS
    rabsshort = 1 mOhm


Notice from spectre during transient analysis `tran', during Monte Carlo analysis `mc1'.
    Multithreading is disabled due to the size of the design being too small.


Output and IC/nodeset summary:
                 save   7       (current)
                 save   32      (voltage)

    tran: time = 2.899 ms     (2.9 %), step = 927.3 us     (927 m%)
    tran: time = 7.836 ms    (7.84 %), step = 1 ms            (1 %)
    tran: time = 13.29 ms    (13.3 %), step = 870.8 us     (871 m%)
    tran: time = 18.2 ms     (18.2 %), step = 1 ms            (1 %)
    tran: time = 22.72 ms    (22.7 %), step = 854.5 us     (854 m%)
    tran: time = 27.55 ms    (27.5 %), step = 1 ms            (1 %)
    tran: time = 33.04 ms      (33 %), step = 862.5 us     (863 m%)
    tran: time = 37.91 ms    (37.9 %), step = 1 ms            (1 %)
    tran: time = 43.35 ms    (43.3 %), step = 873 us       (873 m%)
    tran: time = 48.27 ms    (48.3 %), step = 1 ms            (1 %)
    tran: time = 52.78 ms    (52.8 %), step = 855.8 us     (856 m%)
    tran: time = 57.62 ms    (57.6 %), step = 1 ms            (1 %)
    tran: time = 63.1 ms     (63.1 %), step = 864.2 us     (864 m%)
    tran: time = 67.98 ms      (68 %), step = 1 ms            (1 %)
    tran: time = 72.53 ms    (72.5 %), step = 850.9 us     (851 m%)
    tran: time = 78.33 ms    (78.3 %), step = 1 ms            (1 %)
    tran: time = 82.84 ms    (82.8 %), step = 857.2 us     (857 m%)
    tran: time = 87.68 ms    (87.7 %), step = 1 ms            (1 %)
    tran: time = 93.16 ms    (93.2 %), step = 866.3 us     (866 m%)
    tran: time = 98.05 ms    (98.1 %), step = 1 ms            (1 %)
Number of accepted tran steps =             112

Maximum value achieved for any signal of each quantity: 
V: V(net2) = 3.3 V
I: I(V0:p) = 6.434 uA

~~~~~~~~~~~~~~~~~~~~~~~~~~~~~~~~~
Post-Transient Simulation Summary
~~~~~~~~~~~~~~~~~~~~~~~~~~~~~~~~~
   -   Non-default settings that could significantly slow down simulation
          errpreset = conservative_sigglobal, default moderate
~~~~~~~~~~~~~~~~~~~~~~~~~~~~~~~~~


During simulation, the CPU load for active processors is :
         0 (53.3 %)      1 (59.3 %)      2 (64.8 %)      3 (100.0 %)
         4 (64.7 %)      5 (64.2 %)      6 (50.3 %)      7 (64.1 %)
         8 (67.9 %)      9 (75.8 %)     10 (81.1 %)     11 (56.9 %)
        12 (52.2 %)     13 (90.2 %)     14 (71.1 %)     15 (57.0 %)
        16 (62.1 %)     17 (63.6 %)     18 (53.0 %)     19 (75.8 %)
        20 (81.6 %)     21 (90.5 %)     22 (69.0 %)     23 (74.3 %)
        24 (55.4 %)     25 (79.2 %)     26 (69.8 %)     27 (66.3 %)
        28 (64.4 %)     29 (58.2 %)     30 (67.6 %)     31 (39.7 %)
        32 (57.2 %)     33 (73.6 %)     34 (66.1 %)     35 (70.5 %)
        36 (64.8 %)     37 (76.4 %)     38 (59.7 %)     39 (48.8 %)
        40 (73.1 %)     41 (46.6 %)     42 (58.3 %)     43 (80.2 %)
        44 (80.8 %)     45 (66.9 %)     46 (87.9 %)     47 (62.7 %)
        Total: 3216.9%
Initial condition solution time: CPU = 2.589 ms, elapsed = 2.58994 ms.
Intrinsic tran analysis time:    CPU = 21.931 ms, elapsed = 23.1011 ms.
Total time required for tran analysis `tran': CPU = 26.791 ms, elapsed = 28.4772 ms, util. = 94.1%.
Time accumulated: CPU = 3.37072 s, elapsed = 4.06263 s.
Peak resident memory used = 226 Mbytes.


Notice from spectre during transient analysis `tran', during Monte Carlo analysis `mc1'.
    12 warnings suppressed.

finalTimeOP: writing operating point information to rawfile.

Opening the PSF file ../psf/mc1_separate/034/finalTimeOP.info ...
Licensing Information:
[09:31:35.260897] Periodic Lic check successful


**************************************************
Periodic Steady-State Analysis `pss': fund = 50 Hz
**************************************************

Warning from spectre during check, during IC analysis, during periodic steady state analysis `pss', during Monte Carlo analysis `mc1'.
    WARNING (CMI-2943): Parameter checks have been ignored because the valid value for parameter 'trise' could not be found in 'C1'.
    WARNING (CMI-2943): Parameter checks have been ignored because the valid value for parameter 'trise' could not be found in 'I0.C8<0>_turbo_m4.C1'.
    WARNING (CMI-2943): Parameter checks have been ignored because the valid value for parameter 'trise' could not be found in 'I0.C9<0>_turbo_m8.C1'.
    WARNING (CMI-2943): Parameter checks have been ignored because the valid value for parameter 'trise' could not be found in 'I0.C7<0>_turbo_m2.C1'.
    WARNING (CMI-2943): Parameter checks have been ignored because the valid value for parameter 'trise' could not be found in 'I0.R2.CM'.
        Further occurrences of this warning will be suppressed.

Convergence achieved in 16 iterations.
DC simulation time: CPU = 2.377 ms, elapsed = 2.37703 ms.

==================================
pss `tstab': time = (0 s -> 20 ms)
==================================

Output and IC/nodeset summary:
                 save   7       (current)
                 save   32      (voltage)

Important parameter values in tstab integration:
    start = 0 s
    outputstart = 0 s
    stop = 20 ms
    period = 20 ms
    maxperiods = 20
    step = 20 us
    maxstep = 800 us
    ic = all
    useprevic = no
    skipdc = no
    reltol = 1e-03
    abstol(V) = 1 uV
    abstol(I) = 1 pA
    temp = 27 C
    tnom = 27 C
    tempeffects = all
    method = traponly
    lteratio = 3.5
    relref = sigglobal
    cmin = 0 F
    gmin = 1 pS
    rabsshort = 1 mOhm

    pss: time = 765.1 us    (3.83 %), step = 320 us        (1.6 %)
    pss: time = 2.065 ms    (10.3 %), step = 800 us          (4 %)
    pss: time = 2.865 ms    (14.3 %), step = 800 us          (4 %)
    pss: time = 3.665 ms    (18.3 %), step = 800 us          (4 %)
    pss: time = 5.265 ms    (26.3 %), step = 800 us          (4 %)
    pss: time = 6.065 ms    (30.3 %), step = 800 us          (4 %)
    pss: time = 6.865 ms    (34.3 %), step = 800 us          (4 %)
    pss: time = 7.665 ms    (38.3 %), step = 800 us          (4 %)
    pss: time = 9.265 ms    (46.3 %), step = 800 us          (4 %)
    pss: time = 10.07 ms    (50.3 %), step = 800 us          (4 %)
    pss: time = 10.87 ms    (54.3 %), step = 800 us          (4 %)
    pss: time = 11.67 ms    (58.3 %), step = 800 us          (4 %)
    pss: time = 13.27 ms    (66.3 %), step = 800 us          (4 %)
    pss: time = 14.07 ms    (70.3 %), step = 800 us          (4 %)
    pss: time = 14.87 ms    (74.3 %), step = 800 us          (4 %)
    pss: time = 15.67 ms    (78.3 %), step = 800 us          (4 %)
    pss: time = 17.27 ms    (86.3 %), step = 800 us          (4 %)
    pss: time = 18.07 ms    (90.3 %), step = 800 us          (4 %)
    pss: time = 18.87 ms    (94.3 %), step = 800 us          (4 %)
    pss: time = 20 ms        (100 %), step = 567.5 us     (2.84 %)
Total time required for tstab analysis `pss': CPU = 5.999 ms, elapsed = 5.99813 ms.
Time accumulated: CPU = 3.39261 s, elapsed = 4.10239 s.
Peak resident memory used = 226 Mbytes.

Conv norm = 27.6, max dV(vout_filt) = -9.47691 mV, took 10 ms.

Important parameter values in pss iteration:
    start = 0 s
    outputstart = 0 s
    stop = 20 ms
    period = 20 ms
    maxperiods = 20
    steadyratio = 10e-03
    step = 20 us
    maxstep = 100 us
    ic = all
    useprevic = no
    skipdc = no
    reltol = 100e-06
    abstol(V) = 1 uV
    abstol(I) = 1 pA
    temp = 27 C
    tnom = 27 C
    tempeffects = all
    errpreset = conservative
    method = gear2only
    lteratio = 10
    relref = sigglobal
    cmin = 0 F
    gmin = 1 pS
    rabsshort = 1 mOhm


Notice from spectre during periodic steady state analysis `pss', during Monte Carlo analysis `mc1'.
    12 warnings suppressed.


============================
`pss': time = (0 s -> 20 ms)
============================
    pss: time = 512.5 us    (2.56 %), step = 12.5 us     (62.5 m%)
    pss: time = 1.512 ms    (7.56 %), step = 12.5 us     (62.5 m%)
    pss: time = 2.512 ms    (12.6 %), step = 12.5 us     (62.5 m%)
    pss: time = 3.512 ms    (17.6 %), step = 12.5 us     (62.5 m%)
    pss: time = 4.5 ms      (22.5 %), step = 12.5 us     (62.5 m%)
    pss: time = 5.5 ms      (27.5 %), step = 12.5 us     (62.5 m%)
    pss: time = 6.5 ms      (32.5 %), step = 12.5 us     (62.5 m%)
    pss: time = 7.5 ms      (37.5 %), step = 12.5 us     (62.5 m%)
    pss: time = 8.5 ms      (42.5 %), step = 12.5 us     (62.5 m%)
    pss: time = 9.5 ms      (47.5 %), step = 12.5 us     (62.5 m%)
    pss: time = 10.5 ms     (52.5 %), step = 12.5 us     (62.5 m%)
    pss: time = 11.5 ms     (57.5 %), step = 12.5 us     (62.5 m%)
    pss: time = 12.5 ms     (62.5 %), step = 12.5 us     (62.5 m%)
    pss: time = 13.5 ms     (67.5 %), step = 12.5 us     (62.5 m%)
    pss: time = 14.5 ms     (72.5 %), step = 12.5 us     (62.5 m%)
    pss: time = 15.5 ms     (77.5 %), step = 12.5 us     (62.5 m%)
    pss: time = 16.5 ms     (82.5 %), step = 12.5 us     (62.5 m%)
    pss: time = 17.5 ms     (87.5 %), step = 12.5 us     (62.5 m%)
    pss: time = 18.5 ms     (92.5 %), step = 12.5 us     (62.5 m%)
    pss: time = 19.51 ms    (97.6 %), step = 12.5 us     (62.5 m%)
Conv norm = 792e-03, max dV(vout) = -78.4456 uV, took 370 ms.


Opening the PSF file ../psf/mc1_separate/034/pss.td.pss ...

Opening the PSF file ../psf/mc1_separate/034/pss.fd.pss ...

============================
`pss': time = (0 s -> 20 ms)
============================
    pss: time = 512.5 us    (2.56 %), step = 12.5 us     (62.5 m%)
    pss: time = 1.512 ms    (7.56 %), step = 12.5 us     (62.5 m%)
    pss: time = 2.512 ms    (12.6 %), step = 12.5 us     (62.5 m%)
    pss: time = 3.512 ms    (17.6 %), step = 12.5 us     (62.5 m%)
    pss: time = 4.5 ms      (22.5 %), step = 12.5 us     (62.5 m%)
    pss: time = 5.5 ms      (27.5 %), step = 12.5 us     (62.5 m%)
    pss: time = 6.5 ms      (32.5 %), step = 12.5 us     (62.5 m%)
    pss: time = 7.5 ms      (37.5 %), step = 12.5 us     (62.5 m%)
    pss: time = 8.5 ms      (42.5 %), step = 12.5 us     (62.5 m%)
    pss: time = 9.5 ms      (47.5 %), step = 12.5 us     (62.5 m%)
    pss: time = 10.5 ms     (52.5 %), step = 12.5 us     (62.5 m%)
    pss: time = 11.5 ms     (57.5 %), step = 12.5 us     (62.5 m%)
    pss: time = 12.5 ms     (62.5 %), step = 12.5 us     (62.5 m%)
    pss: time = 13.5 ms     (67.5 %), step = 12.5 us     (62.5 m%)
    pss: time = 14.5 ms     (72.5 %), step = 12.5 us     (62.5 m%)
    pss: time = 15.5 ms     (77.5 %), step = 12.5 us     (62.5 m%)
    pss: time = 16.5 ms     (82.5 %), step = 12.5 us     (62.5 m%)
    pss: time = 17.5 ms     (87.5 %), step = 12.5 us     (62.5 m%)
    pss: time = 18.5 ms     (92.5 %), step = 12.5 us     (62.5 m%)
    pss: time = 19.51 ms    (97.6 %), step = 12.5 us     (62.5 m%)

Maximum value achieved for any signal of each quantity: 
V: V(net2) = 3.3 V
I: I(V0:p) = 6.434 uA
Initial condition solution time: CPU = 2.425 ms, elapsed = 2.42782 ms.
pss: The steady-state solution was achieved in 2 iterations.
Number of accepted pss steps =             1600
Total time required for pss analysis `pss': CPU = 816.899 ms, elapsed = 836.821 ms, util. = 97.6%.
Time accumulated: CPU = 4.19289 s, elapsed = 4.90687 s.
Peak resident memory used = 226 Mbytes.

modelParameter: writing model parameter values to rawfile.

Opening the PSF file ../psf/mc1_separate/034/modelParameter.info ...
element: writing instance parameter values to rawfile.

Opening the PSF file ../psf/mc1_separate/034/element.info ...
outputParameter: writing output parameter values to rawfile.

Opening the PSF file ../psf/mc1_separate/034/outputParameter.info ...
designParamVals: writing netlist parameters to rawfile.

Opening the PSFASCII file ../psf/mc1_separate/034/designParamVals.info ...
primitives: writing primitives to rawfile.

Opening the PSFASCII file ../psf/mc1_separate/034/primitives.info.primitives ...
subckts: writing subcircuits to rawfile.

Opening the PSFASCII file ../psf/mc1_separate/034/subckts.info.subckts ...
    mc1: iteration = 34            (75 %), step = 1              (25 %)
35 100.00% 

*************************************************
Transient Analysis `tran': time = (0 s -> 100 ms)
*************************************************

Opening the PSF file ../psf/mc1_separate/035/tran.tran.tran ...

Notice from spectre during IC analysis, during transient analysis `tran', during Monte Carlo analysis `mc1'.
    Bad pivoting is found during DC analysis. Option dc_pivot_check=yes is recommended for possible improvement of convergence.
Warning from spectre during check, during IC analysis, during transient analysis `tran', during Monte Carlo analysis `mc1'.
    WARNING (CMI-2943): Parameter checks have been ignored because the valid value for parameter 'trise' could not be found in 'C1'.
    WARNING (CMI-2943): Parameter checks have been ignored because the valid value for parameter 'trise' could not be found in 'I0.C8<0>_turbo_m4.C1'.
    WARNING (CMI-2943): Parameter checks have been ignored because the valid value for parameter 'trise' could not be found in 'I0.C9<0>_turbo_m8.C1'.
    WARNING (CMI-2943): Parameter checks have been ignored because the valid value for parameter 'trise' could not be found in 'I0.C7<0>_turbo_m2.C1'.
    WARNING (CMI-2943): Parameter checks have been ignored because the valid value for parameter 'trise' could not be found in 'I0.R2.CM'.
        Further occurrences of this warning will be suppressed.

Convergence achieved in 17 iterations.
DC simulation time: CPU = 2.363 ms, elapsed = 2.36297 ms.
Important parameter values:
    start = 0 s
    outputstart = 0 s
    stop = 100 ms
    step = 100 us
    maxstep = 1 ms
    ic = all
    useprevic = no
    skipdc = no
    reltol = 100e-06
    abstol(V) = 1 uV
    abstol(I) = 1 pA
    temp = 27 C
    tnom = 27 C
    tempeffects = all
    errpreset = conservative_sigglobal
    method = gear2only
    lteratio = 10
    relref = sigglobal
    cmin = 0 F
    gmin = 1 pS
    rabsshort = 1 mOhm


Notice from spectre during transient analysis `tran', during Monte Carlo analysis `mc1'.
    Multithreading is disabled due to the size of the design being too small.


Output and IC/nodeset summary:
                 save   7       (current)
                 save   32      (voltage)

    tran: time = 2.906 ms    (2.91 %), step = 933.6 us     (934 m%)
    tran: time = 7.844 ms    (7.84 %), step = 1 ms            (1 %)
    tran: time = 13.29 ms    (13.3 %), step = 871 us       (871 m%)
    tran: time = 18.21 ms    (18.2 %), step = 1 ms            (1 %)
    tran: time = 22.73 ms    (22.7 %), step = 854.6 us     (855 m%)
    tran: time = 27.56 ms    (27.6 %), step = 1 ms            (1 %)
    tran: time = 33.04 ms      (33 %), step = 862.7 us     (863 m%)
    tran: time = 37.92 ms    (37.9 %), step = 1 ms            (1 %)
    tran: time = 43.35 ms    (43.4 %), step = 873.3 us     (873 m%)
    tran: time = 48.28 ms    (48.3 %), step = 1 ms            (1 %)
    tran: time = 52.79 ms    (52.8 %), step = 856 us       (856 m%)
    tran: time = 57.62 ms    (57.6 %), step = 1 ms            (1 %)
    tran: time = 63.1 ms     (63.1 %), step = 864.5 us     (864 m%)
    tran: time = 67.99 ms      (68 %), step = 1 ms            (1 %)
    tran: time = 72.54 ms    (72.5 %), step = 851 us       (851 m%)
    tran: time = 78.34 ms    (78.3 %), step = 1 ms            (1 %)
    tran: time = 82.85 ms    (82.8 %), step = 857.3 us     (857 m%)
    tran: time = 87.69 ms    (87.7 %), step = 1 ms            (1 %)
    tran: time = 93.16 ms    (93.2 %), step = 866.5 us     (866 m%)
    tran: time = 98.06 ms    (98.1 %), step = 1 ms            (1 %)
Number of accepted tran steps =             112

Maximum value achieved for any signal of each quantity: 
V: V(net2) = 3.3 V
I: I(V0:p) = 6.318 uA

~~~~~~~~~~~~~~~~~~~~~~~~~~~~~~~~~
Post-Transient Simulation Summary
~~~~~~~~~~~~~~~~~~~~~~~~~~~~~~~~~
   -   Non-default settings that could significantly slow down simulation
          errpreset = conservative_sigglobal, default moderate
~~~~~~~~~~~~~~~~~~~~~~~~~~~~~~~~~


During simulation, the CPU load for active processors is :
         0 (59.7 %)      1 (60.2 %)      2 (69.6 %)      3 (100.0 %)
         4 (67.0 %)      5 (62.0 %)      6 (46.0 %)      7 (65.2 %)
         8 (74.0 %)      9 (80.4 %)     10 (69.2 %)     11 (49.3 %)
        12 (53.1 %)     13 (88.0 %)     14 (71.6 %)     15 (55.0 %)
        16 (68.0 %)     17 (68.1 %)     18 (50.1 %)     19 (74.4 %)
        20 (81.4 %)     21 (92.2 %)     22 (66.0 %)     23 (76.7 %)
        24 (51.5 %)     25 (79.8 %)     26 (61.8 %)     27 (68.4 %)
        28 (70.0 %)     29 (56.2 %)     30 (66.5 %)     31 (43.1 %)
        32 (53.7 %)     33 (64.8 %)     34 (72.6 %)     35 (72.1 %)
        36 (67.1 %)     37 (71.3 %)     38 (56.6 %)     39 (53.8 %)
        40 (76.7 %)     41 (46.6 %)     42 (58.3 %)     43 (75.7 %)
        44 (84.3 %)     45 (62.4 %)     46 (82.3 %)     47 (66.1 %)
        Total: 3209.1%
Initial condition solution time: CPU = 2.398 ms, elapsed = 2.39992 ms.
Intrinsic tran analysis time:    CPU = 22.637 ms, elapsed = 23.962 ms.
Total time required for tran analysis `tran': CPU = 27.256 ms, elapsed = 29.1791 ms, util. = 93.4%.
Time accumulated: CPU = 4.25679 s, elapsed = 4.98237 s.
Peak resident memory used = 226 Mbytes.


Notice from spectre during transient analysis `tran', during Monte Carlo analysis `mc1'.
    12 warnings suppressed.

finalTimeOP: writing operating point information to rawfile.

Opening the PSF file ../psf/mc1_separate/035/finalTimeOP.info ...
Licensing Information:
[09:31:36.182200] Periodic Lic check successful


**************************************************
Periodic Steady-State Analysis `pss': fund = 50 Hz
**************************************************

Notice from spectre during IC analysis, during periodic steady state analysis `pss', during Monte Carlo analysis `mc1'.
    Bad pivoting is found during DC analysis. Option dc_pivot_check=yes is recommended for possible improvement of convergence.
Warning from spectre during check, during IC analysis, during periodic steady state analysis `pss', during Monte Carlo analysis `mc1'.
    WARNING (CMI-2943): Parameter checks have been ignored because the valid value for parameter 'trise' could not be found in 'C1'.
    WARNING (CMI-2943): Parameter checks have been ignored because the valid value for parameter 'trise' could not be found in 'I0.C8<0>_turbo_m4.C1'.
    WARNING (CMI-2943): Parameter checks have been ignored because the valid value for parameter 'trise' could not be found in 'I0.C9<0>_turbo_m8.C1'.
    WARNING (CMI-2943): Parameter checks have been ignored because the valid value for parameter 'trise' could not be found in 'I0.C7<0>_turbo_m2.C1'.
    WARNING (CMI-2943): Parameter checks have been ignored because the valid value for parameter 'trise' could not be found in 'I0.R2.CM'.
        Further occurrences of this warning will be suppressed.

Convergence achieved in 17 iterations.
DC simulation time: CPU = 2.54 ms, elapsed = 2.53987 ms.

==================================
pss `tstab': time = (0 s -> 20 ms)
==================================

Output and IC/nodeset summary:
                 save   7       (current)
                 save   32      (voltage)

Important parameter values in tstab integration:
    start = 0 s
    outputstart = 0 s
    stop = 20 ms
    period = 20 ms
    maxperiods = 20
    step = 20 us
    maxstep = 800 us
    ic = all
    useprevic = no
    skipdc = no
    reltol = 1e-03
    abstol(V) = 1 uV
    abstol(I) = 1 pA
    temp = 27 C
    tnom = 27 C
    tempeffects = all
    method = traponly
    lteratio = 3.5
    relref = sigglobal
    cmin = 0 F
    gmin = 1 pS
    rabsshort = 1 mOhm

    pss: time = 510.4 us    (2.55 %), step = 257.4 us     (1.29 %)
    pss: time = 2.178 ms    (10.9 %), step = 800 us          (4 %)
    pss: time = 2.978 ms    (14.9 %), step = 800 us          (4 %)
    pss: time = 3.778 ms    (18.9 %), step = 800 us          (4 %)
    pss: time = 4.578 ms    (22.9 %), step = 800 us          (4 %)
    pss: time = 6.178 ms    (30.9 %), step = 800 us          (4 %)
    pss: time = 6.978 ms    (34.9 %), step = 800 us          (4 %)
    pss: time = 7.778 ms    (38.9 %), step = 800 us          (4 %)
    pss: time = 8.578 ms    (42.9 %), step = 800 us          (4 %)
    pss: time = 10.18 ms    (50.9 %), step = 800 us          (4 %)
    pss: time = 10.98 ms    (54.9 %), step = 800 us          (4 %)
    pss: time = 11.78 ms    (58.9 %), step = 800 us          (4 %)
    pss: time = 12.58 ms    (62.9 %), step = 800 us          (4 %)
    pss: time = 14.18 ms    (70.9 %), step = 800 us          (4 %)
    pss: time = 14.98 ms    (74.9 %), step = 800 us          (4 %)
    pss: time = 15.78 ms    (78.9 %), step = 800 us          (4 %)
    pss: time = 16.58 ms    (82.9 %), step = 800 us          (4 %)
    pss: time = 18.18 ms    (90.9 %), step = 800 us          (4 %)
    pss: time = 18.98 ms    (94.9 %), step = 800 us          (4 %)
    pss: time = 20 ms        (100 %), step = 510.8 us     (2.55 %)
Total time required for tstab analysis `pss': CPU = 6.273 ms, elapsed = 6.27303 ms.
Time accumulated: CPU = 4.27979 s, elapsed = 5.02116 s.
Peak resident memory used = 226 Mbytes.

Conv norm = 29.6, max dV(vout_filt) = -10.1618 mV, took 10 ms.

Important parameter values in pss iteration:
    start = 0 s
    outputstart = 0 s
    stop = 20 ms
    period = 20 ms
    maxperiods = 20
    steadyratio = 10e-03
    step = 20 us
    maxstep = 100 us
    ic = all
    useprevic = no
    skipdc = no
    reltol = 100e-06
    abstol(V) = 1 uV
    abstol(I) = 1 pA
    temp = 27 C
    tnom = 27 C
    tempeffects = all
    errpreset = conservative
    method = gear2only
    lteratio = 10
    relref = sigglobal
    cmin = 0 F
    gmin = 1 pS
    rabsshort = 1 mOhm


Notice from spectre during periodic steady state analysis `pss', during Monte Carlo analysis `mc1'.
    12 warnings suppressed.


============================
`pss': time = (0 s -> 20 ms)
============================
    pss: time = 512.5 us    (2.56 %), step = 12.5 us     (62.5 m%)
    pss: time = 1.512 ms    (7.56 %), step = 12.5 us     (62.5 m%)
    pss: time = 2.512 ms    (12.6 %), step = 12.5 us     (62.5 m%)
    pss: time = 3.512 ms    (17.6 %), step = 12.5 us     (62.5 m%)
    pss: time = 4.5 ms      (22.5 %), step = 12.5 us     (62.5 m%)
    pss: time = 5.5 ms      (27.5 %), step = 12.5 us     (62.5 m%)
    pss: time = 6.5 ms      (32.5 %), step = 12.5 us     (62.5 m%)
    pss: time = 7.5 ms      (37.5 %), step = 12.5 us     (62.5 m%)
    pss: time = 8.5 ms      (42.5 %), step = 12.5 us     (62.5 m%)
    pss: time = 9.5 ms      (47.5 %), step = 12.5 us     (62.5 m%)
    pss: time = 10.5 ms     (52.5 %), step = 12.5 us     (62.5 m%)
    pss: time = 11.5 ms     (57.5 %), step = 12.5 us     (62.5 m%)
    pss: time = 12.5 ms     (62.5 %), step = 12.5 us     (62.5 m%)
    pss: time = 13.5 ms     (67.5 %), step = 12.5 us     (62.5 m%)
    pss: time = 14.5 ms     (72.5 %), step = 12.5 us     (62.5 m%)
    pss: time = 15.5 ms     (77.5 %), step = 12.5 us     (62.5 m%)
    pss: time = 16.5 ms     (82.5 %), step = 12.5 us     (62.5 m%)
    pss: time = 17.5 ms     (87.5 %), step = 12.5 us     (62.5 m%)
    pss: time = 18.5 ms     (92.5 %), step = 12.5 us     (62.5 m%)
    pss: time = 19.51 ms    (97.6 %), step = 12.5 us     (62.5 m%)
Conv norm = 138e-03, max dV(vout) = -13.6856 uV, took 390 ms.


Opening the PSF file ../psf/mc1_separate/035/pss.td.pss ...

Opening the PSF file ../psf/mc1_separate/035/pss.fd.pss ...

============================
`pss': time = (0 s -> 20 ms)
============================
    pss: time = 512.5 us    (2.56 %), step = 12.5 us     (62.5 m%)
    pss: time = 1.512 ms    (7.56 %), step = 12.5 us     (62.5 m%)
    pss: time = 2.512 ms    (12.6 %), step = 12.5 us     (62.5 m%)
    pss: time = 3.512 ms    (17.6 %), step = 12.5 us     (62.5 m%)
    pss: time = 4.5 ms      (22.5 %), step = 12.5 us     (62.5 m%)
    pss: time = 5.5 ms      (27.5 %), step = 12.5 us     (62.5 m%)
    pss: time = 6.5 ms      (32.5 %), step = 12.5 us     (62.5 m%)
    pss: time = 7.5 ms      (37.5 %), step = 12.5 us     (62.5 m%)
    pss: time = 8.5 ms      (42.5 %), step = 12.5 us     (62.5 m%)
    pss: time = 9.5 ms      (47.5 %), step = 12.5 us     (62.5 m%)
    pss: time = 10.5 ms     (52.5 %), step = 12.5 us     (62.5 m%)
    pss: time = 11.5 ms     (57.5 %), step = 12.5 us     (62.5 m%)
    pss: time = 12.5 ms     (62.5 %), step = 12.5 us     (62.5 m%)
    pss: time = 13.5 ms     (67.5 %), step = 12.5 us     (62.5 m%)
    pss: time = 14.5 ms     (72.5 %), step = 12.5 us     (62.5 m%)
    pss: time = 15.5 ms     (77.5 %), step = 12.5 us     (62.5 m%)
    pss: time = 16.5 ms     (82.5 %), step = 12.5 us     (62.5 m%)
    pss: time = 17.5 ms     (87.5 %), step = 12.5 us     (62.5 m%)
    pss: time = 18.5 ms     (92.5 %), step = 12.5 us     (62.5 m%)
    pss: time = 19.51 ms    (97.6 %), step = 12.5 us     (62.5 m%)

Maximum value achieved for any signal of each quantity: 
V: V(net2) = 3.3 V
I: I(V0:p) = 6.318 uA
Initial condition solution time: CPU = 2.589 ms, elapsed = 2.59089 ms.
pss: The steady-state solution was achieved in 2 iterations.
Number of accepted pss steps =             1600
Total time required for pss analysis `pss': CPU = 841.164 ms, elapsed = 859.737 ms, util. = 97.8%.
Time accumulated: CPU = 5.10409 s, elapsed = 5.85008 s.
Peak resident memory used = 226 Mbytes.

modelParameter: writing model parameter values to rawfile.

Opening the PSF file ../psf/mc1_separate/035/modelParameter.info ...
element: writing instance parameter values to rawfile.

Opening the PSF file ../psf/mc1_separate/035/element.info ...
outputParameter: writing output parameter values to rawfile.

Opening the PSF file ../psf/mc1_separate/035/outputParameter.info ...
designParamVals: writing netlist parameters to rawfile.

Opening the PSFASCII file ../psf/mc1_separate/035/designParamVals.info ...
primitives: writing primitives to rawfile.

Opening the PSFASCII file ../psf/mc1_separate/035/primitives.info.primitives ...
subckts: writing subcircuits to rawfile.

Opening the PSFASCII file ../psf/mc1_separate/035/subckts.info.subckts ...
    mc1: iteration = 35           (100 %), step = 1              (25 %)
Total time required for montecarlo analysis `mc1': CPU = 4.58198 s, elapsed = 4.76984 s, util. = 96.1%.
Time accumulated: CPU = 5.13255 s, elapsed = 5.89695 s.
Peak resident memory used = 226 Mbytes.

Licensing Information:
Lic Summary:
[09:31:37.079410] Cdslmd servers: lic08
[09:31:37.079457] Feature usage summary:
[09:31:37.079457] Virtuoso_Multi_mode_Simulation
[09:31:37.079457] Spectre_X_MMSIM_Lk


Aggregate audit (9:31:37 AM, Thur Apr 16, 2026):
Time used: CPU = 5.14 s, elapsed = 5.9 s, util. = 87%.
Time spent in licensing: elapsed = 154 ms.
Peak memory used = 226 Mbytes.
Simulation started at: 9:31:31 AM, Thur Apr 16, 2026, ended at: 9:31:37 AM, Thur Apr 16, 2026, with elapsed time (wall clock): 5.9 s.
spectre completes with 0 errors, 74 warnings, and 31 notices.
