
Spectre (R) Circuit Simulator
Version 24.1.0.288.isr5 64bit -- 3 Apr 2025
Copyright (C) 1989-2025 Cadence Design Systems, Inc. All rights reserved worldwide. Cadence and Spectre are registered trademarks of Cadence Design Systems, Inc. All others are the property of their respective holders.

Includes RSA BSAFE(R) Cryptographic or Security Protocol Software from RSA Security, Inc.

User: davidevi   Host: il2244vt26_davidevi   HostID: 11AC2C00   PID: 1055050
Memory  available: 3.0376 TB  physical: 3.2467 TB
Linux   : Rocky Linux release 8.10 (Green Obsidian)
CPU Type: Intel(R) Xeon(R) CPU E7-8857 v2 @ 3.00GHz
        Socket: Processors [Frequency]
        0:       0 [2999.9],  1 [1200.0],  2 [2900.0],  3 [3100.0],  4 [3000.0]
                 5 [1200.0],  6 [1200.0],  7 [3600.0],  8 [3500.0],  9 [1200.0]
                10 [1200.0], 11 [2999.9]
        1:      12 [3600.0], 13 [1800.0], 14 [3600.0], 15 [1800.0], 16 [2500.0]
                17 [3600.0], 18 [3600.0], 19 [3395.6], 20 [3394.6], 21 [3394.6]
                22 [3600.0], 23 [3600.0]
        2:      24 [3100.0], 25 [1200.0], 26 [2800.0], 27 [1200.0], 28 [2900.0]
                29 [3100.0], 30 [3600.0], 31 [3418.9], 32 [3600.0], 33 [3600.0]
                34 [3419.2], 35 [3600.0]
        3:      36 [2999.9], 37 [2999.9], 38 [2800.0], 39 [2500.0], 40 [2700.0]
                41 [2200.0], 42 [2500.0], 43 [1200.0], 44 [2400.0], 45 [2999.9]
                46 [1200.0], 47 [2999.9]
        
System load averages (1min, 5min, 15min) : 26.2 %, 23.6 %, 19.1 %
HPC is enabled


Simulating `input.scs' on il2244vt26_davidevi at 9:11:28 AM, Thur Apr 16, 2026 (process id: 1055050).
Current working directory: /home/davidevi/Desktop/myproject/Sim/VGA/VGA_1_tb/adexl/results/data/MonteCarlo.3/23/Linerity_MC/groupRunDataDir/netlist
Command line:
    /opt/tools/cadence/installs/SPECTRE241/tools/bin/spectre -64  \
        input.scs +escchars +log ../psf/spectre.out -format psfbin  \
        +rtsf -raw ../psf +aps +mt +lqtimeout 900 -maxw 5 -maxn 5  \
        +param /opt/pdk/ams/410/spectre/ams_range.lmts -env ade  \
        -ahdllibdir  \
        /home/davidevi/Desktop/myproject/Sim/VGA/VGA_1_tb/adexl/results/data/MonteCarlo.3/sharedData/Job473/ahdl/input.ahdlSimDB  \
        +logstatus  \
        +adespetkn=0001089D13A302B663E41FB550AF0DF415A679A322D5069144BF588C12F604E07EF416DC01A319B562BB63D365CB238245A37FDE39CE27A267DA61DD6CFA4F9260E279D15D9175FF34986BDD0AF002BA50FD7FD707E002A700AC1C8618F746EA0EAB79D128F874D3349879D118F874D334981031BF47D36C5D78000036AD

Simulation Id: WQrGUMSBSqOCLvTz
Licensing Information:
[09:11:28.121770] Configured Lic search path (24.01-s002): 3000@lic08.ug.kth.se:29000@lic06.ug.kth.se

Licensing Information:
[09:11:28.387178] Periodic Lic check successful

Loading /opt/tools/cadence/installs/SPECTRE241/tools.lnx86/cmi/lib/64bit/5.0/libinfineon_sh.so ...
Loading /opt/tools/cadence/installs/SPECTRE241/tools.lnx86/cmi/lib/64bit/5.0/libphilips_I_sh.so ...
Loading /opt/tools/cadence/installs/SPECTRE241/tools.lnx86/cmi/lib/64bit/5.0/libphilips_sh.so ...
Loading /opt/tools/cadence/installs/SPECTRE241/tools.lnx86/cmi/lib/64bit/5.0/libsparam_sh.so ...
Loading /opt/tools/cadence/installs/SPECTRE241/tools.lnx86/cmi/lib/64bit/5.0/libstmodels_sh.so ...

Warning from spectre.
    WARNING (SPECTRE-691): This CPU processor does not support x86 advanced vector extensions instructions. This may affect math operations and slow down the simulation.

Reading file:  /home/davidevi/Desktop/myproject/Sim/VGA/VGA_1_tb/adexl/results/data/MonteCarlo.3/23/Linerity_MC/groupRunDataDir/netlist/input.scs
Reading file:  /opt/pdk/ams/410/spectre/ams_range.lmts

Warning from spectre during read of parameter soft limits file `/opt/pdk/ams/410/spectre/ams_range.lmts', during circuit read-in.
    WARNING (SPECTRE-8360): line 1511: `ac' is an undefined primitive device.
    WARNING (SPECTRE-8360): line 1512: `ac' is an undefined primitive device.
    WARNING (SPECTRE-8360): line 1513: `ac' is an undefined primitive device.
    WARNING (SPECTRE-8360): line 1514: `ac' is an undefined primitive device.
    WARNING (SPECTRE-8360): line 1515: `ac' is an undefined primitive device.
        Further occurrences of this warning will be suppressed.

Reading file:  /opt/tools/cadence/installs/SPECTRE241/tools.lnx86/spectre/etc/configs/spectre.cfg
Reading file:  /opt/pdk/ams/410/spectre/c35/soac/soac.scs
Reading file:  /opt/pdk/ams/410/spectre/c35/soac/processOption.scs
Reading file:  /opt/pdk/ams/410/spectre/c35/soac/process.scs
Reading file:  /opt/pdk/ams/410/spectre/c35/soac/soac.va

Warning from spectre during AHDL read-in.
    WARNING (VACOMP-2435): The environment variable CDS_AHDLCMI_ENABLE is no longer supported. Therefore, the simulator will use the default compiled C code flow.

Reading link:  /opt/tools/cadence/installs/SPECTRE241/tools.lnx86/spectre/etc/ahdl/constants.h
Reading file:  /opt/tools/cadence/installs/SPECTRE241/tools.lnx86/spectre/etc/ahdl/constants.vams
Reading link:  /opt/tools/cadence/installs/SPECTRE241/tools.lnx86/spectre/etc/ahdl/discipline.h
Reading file:  /opt/tools/cadence/installs/SPECTRE241/tools.lnx86/spectre/etc/ahdl/disciplines.vams
Reading file:  /opt/pdk/ams/410/spectre/c35/processOption/C35B4C3.scs
Reading file:  /opt/pdk/ams/410/spectre/c35/soac/cmos53.scs
Reading file:  /opt/pdk/ams/410/spectre/c35/soac/res.scs
Reading file:  /opt/pdk/ams/410/spectre/c35/soac/cap.scs
Reading file:  /opt/pdk/ams/410/spectre/c35/soac/bip.scs
Reading file:  /opt/pdk/ams/410/spectre/c35/soac/ind.scs
Reading file:  /opt/pdk/ams/410/spectre/c35/soac/esddiode.scs
Time for NDB Parsing: CPU = 152.56 ms, elapsed = 315.405 ms.
Time accumulated: CPU = 335.321 ms, elapsed = 315.407 ms.
Peak resident memory used = 175 Mbytes.

Existing shared object for module modn_ahdl is up to date.
Installed compiled interface for modn_ahdl.
Existing shared object for module modp_ahdl is up to date.
Installed compiled interface for modp_ahdl.
Existing shared object for module cpoly_ahdl is up to date.
Installed compiled interface for cpoly_ahdl.
Existing shared object for module rpolyh_ahdl is up to date.
Installed compiled interface for rpolyh_ahdl.
Existing shared object for module bsource_19b458 is up to date.
Installed compiled interface for bsource_19b458.
Time for Elaboration: CPU = 49.562 ms, elapsed = 51.4481 ms.
Time accumulated: CPU = 384.99 ms, elapsed = 366.961 ms.
Peak resident memory used = 188 Mbytes.


Notice from spectre during hierarchy flattening.
    The value 'psf' specified for the 'checklimitdest' option will no longer be supported in future releases. Use 'spectre -h' to see other recommended values for the 'checklimitdest' option.


*****************************************************************************************
* 
* INFO: AMS_processOption = C35B4C3
* 
* INFO: Valid Modules  PIP VG5 HIRES
* 
*****************************************************************************************


Time for EDB Visiting: CPU = 7.401 ms, elapsed = 7.4079 ms.
Time accumulated: CPU = 392.499 ms, elapsed = 374.476 ms.
Peak resident memory used = 191 Mbytes.

Loading /opt/tools/cadence/installs/SPECTRE241/tools.lnx86/mdl/lib/64bit/libSpectreEH_sh.so ...

Warning from spectre during initial setup.
    WARNING (SPECTRE-16460): SOAC_cvarm_vspsub:Specified subcircuit master `cvarm' was not found.
    WARNING (SPECTRE-16462): SOAC_cvarm_vspsub:Error in specification of subcircuit master. Assert is ignored.
    WARNING (SPECTRE-16460): SOAC_cvarm_vbs:Specified subcircuit master `cvarm' was not found.
    WARNING (SPECTRE-16462): SOAC_cvarm_vbs:Error in specification of subcircuit master. Assert is ignored.
    WARNING (SPECTRE-16460): SOAC_cvarm_vgb:Specified subcircuit master `cvarm' was not found.
    WARNING (SPECTRE-16462): SOAC_cvarm_vgb:Error in specification of subcircuit master. Assert is ignored.
    WARNING (SPECTRE-16460): SOAC_cvart_vspsub:Specified subcircuit master `cvart' was not found.
    WARNING (SPECTRE-16462): SOAC_cvart_vspsub:Error in specification of subcircuit master. Assert is ignored.
    WARNING (SPECTRE-16460): SOAC_cvart_vbs:Specified subcircuit master `cvart' was not found.
        Further occurrences of this warning will be suppressed.
    WARNING (SPECTRE-16462): SOAC_cvart_vbs:Error in specification of subcircuit master. Assert is ignored.
        Further occurrences of this warning will be suppressed.
Notice from spectre during topology check.
    Only one connection to the following 54 nodes:
        I0.MN6.psub!
        I0.MN5.psub!
        I0.MN4.psub!
        I0.MN3.psub!
        I0.MN2.psub!
        Further occurrences of this notice will be suppressed.
Notice from spectre during initial setup.
    Multithreading is disabled due to the size of the design being too small.


Netlist title:
        // Point Netlist Generated on: Apr 16 09:11:27 2026


Global user options:
         psfversion = 1.4.0
            vabstol = 1e-06
            iabstol = 1e-12
               temp = 85
           homotopy = 5
              limit = delta
         compatible = spice2
               gmin = 1e-12
             rforce = 1
           maxnotes = 5
           maxwarns = 5
             digits = 5
               cols = 80
             pivrel = 0.001
           sensfile = ../psf/sens.output
     checklimitdest = psf
     enable_pre_ver = yes
      ignorezerovar = yes
               save = allpub
             reltol = 0.0001
               tnom = 27
             scalem = 1
              scale = 1

Scoped user options:

Circuit inventory:
              nodes 88
            bsim3v3 35    
     bsource_19b458 2     
          capacitor 38    
         cpoly_ahdl 17    
            isource 1     
          modn_ahdl 19    
          modp_ahdl 16    
           resistor 1     
        rpolyh_ahdl 2     
            vsource 8     

Analysis and control statement inventory:
                 dc 1     
               info 8     
         montecarlo 1     
               tran 1     

Output statements:
             .probe 0     
           .measure 0     
               save 0     

Design checks inventory:
          paramtest 55    
             assert 175   


Notice from spectre during initial setup.
    APS enabled.
    1 notice suppressed.
    72 warnings suppressed.

Time for parsing: CPU = 16.996 ms, elapsed = 554.583 ms.
Time accumulated: CPU = 409.588 ms, elapsed = 929.15 ms.
Peak resident memory used = 198 Mbytes.

~~~~~~~~~~~~~~~~~~~~~~
Pre-Simulation Summary
~~~~~~~~~~~~~~~~~~~~~~
   -   (APS) Multi-threading. The recommended number of threads is 1, consider adding +mt=1 on command line.
~~~~~~~~~~~~~~~~~~~~~~

*************************************************
Monte Carlo Analysis `mc1': iteration = (1 -> 50)
*************************************************
Important parameter values:
    seed = 12345
    sampling = lds
    variations = all
    firstrun = 1
    numruns = 50
    nullmfactorcorrelation = no
    donominal = yes
    method = standard

**** Performing nominal run for `mc1'

******************
DC Analysis `dcOp'
******************

Notice from spectre during DC analysis `dcOp', during Monte Carlo analysis `mc1'.
    No checklimit analysis defined for asserts. A default checklimit analysis 'SpectreChecklimitAnal' has been created with all asserts enabled.


Opening the PSF file ../psf/nom/dcOp.dc ...
Important parameter values:
    reltol = 100e-06
    abstol(V) = 1 uV
    abstol(I) = 1 pA
    temp = 85 C
    tnom = 27 C
    tempeffects = all
    gmindc = 1 pS
    rabsshort = 1 mOhm

Notice from spectre during DC analysis `dcOp', during Monte Carlo analysis `mc1'.
    Bad pivoting is found during DC analysis. Option dc_pivot_check=yes is recommended for possible improvement of convergence.


Maximum value achieved for any signal of each quantity: 
V: V(S<0>) = 3.3 V
I: I(V0:p) = 6.435 uA
Maximum value of each quantity, excluding Verilog-A modules or dangling current sources:
V: V(vout_filt) = 1.6 V
I: I(V0:p) = 6.435 uA

Warning from spectre during check, during DC analysis `dcOp', during Monte Carlo analysis `mc1'.
    WARNING (CMI-2943): Parameter checks have been ignored because the valid value for parameter 'trise' could not be found in 'C1'.
    WARNING (CMI-2943): Parameter checks have been ignored because the valid value for parameter 'trise' could not be found in 'I0.R2.CM'.
    WARNING (CMI-2943): Parameter checks have been ignored because the valid value for parameter 'trise' could not be found in 'I0.R2.CS1'.
    WARNING (CMI-2943): Parameter checks have been ignored because the valid value for parameter 'trise' could not be found in 'I0.R2.CS0'.
    WARNING (CMI-2943): Parameter checks have been ignored because the valid value for parameter 'trise' could not be found in 'I0.C8<3>.C1'.
        Further occurrences of this warning will be suppressed.

Convergence achieved in 19 iterations.
DC simulation time: CPU = 76.298 ms, elapsed = 79.8881 ms.
Total time required for dc analysis `dcOp': CPU = 76.393 ms, elapsed = 79.9809 ms, util. = 95.5%.
Time accumulated: CPU = 508.769 ms, elapsed = 1.03274 s.
Peak resident memory used = 206 Mbytes.


Notice from spectre during Monte Carlo analysis `mc1'.
    34 warnings suppressed.

dcOpInfo: writing operating point information to rawfile.

Opening the PSF file ../psf/nom/dcOpInfo.info ...

************************************************
Transient Analysis `tran': time = (0 s -> 40 ms)
************************************************

Notice from spectre during IC analysis, during transient analysis `tran', during Monte Carlo analysis `mc1'.
    Bad pivoting is found during DC analysis. Option dc_pivot_check=yes is recommended for possible improvement of convergence.
Warning from spectre during check, during IC analysis, during transient analysis `tran', during Monte Carlo analysis `mc1'.
    WARNING (CMI-2943): Parameter checks have been ignored because the valid value for parameter 'trise' could not be found in 'C1'.
    WARNING (CMI-2943): Parameter checks have been ignored because the valid value for parameter 'trise' could not be found in 'I0.R2.CM'.
    WARNING (CMI-2943): Parameter checks have been ignored because the valid value for parameter 'trise' could not be found in 'I0.R2.CS1'.
    WARNING (CMI-2943): Parameter checks have been ignored because the valid value for parameter 'trise' could not be found in 'I0.R2.CS0'.
    WARNING (CMI-2943): Parameter checks have been ignored because the valid value for parameter 'trise' could not be found in 'I0.C8<3>.C1'.
        Further occurrences of this warning will be suppressed.

Convergence achieved in 2 iterations.
DC simulation time: CPU = 977 us, elapsed = 978.231 us.

Opening the PSF file ../psf/nom/tran.tran.tran ...
Important parameter values:
    start = 0 s
    outputstart = 0 s
    stop = 40 ms
    step = 40 us
    maxstep = 400 us
    ic = all
    useprevic = no
    skipdc = no
    reltol = 10e-06
    abstol(V) = 1 uV
    abstol(I) = 1 pA
    temp = 85 C
    tnom = 27 C
    tempeffects = all
    errpreset = conservative
    method = gear2only
    lteratio = 10
    relref = alllocal
    cmin = 0 F
    gmin = 1 pS
    rabsshort = 1 mOhm


Notice from spectre during transient analysis `tran', during Monte Carlo analysis `mc1'.
    Multithreading is disabled due to the size of the design being too small.


Output and IC/nodeset summary:
                 save   8       (current)
                 save   87      (voltage)

    tran: time = 1.017 ms    (2.54 %), step = 48.7 us      (122 m%)
    tran: time = 3.031 ms    (7.58 %), step = 47.6 us      (119 m%)
    tran: time = 5.045 ms    (12.6 %), step = 46.76 us     (117 m%)
    tran: time = 7.012 ms    (17.5 %), step = 49.25 us     (123 m%)
    tran: time = 9.025 ms    (22.6 %), step = 48.07 us     (120 m%)
    tran: time = 11.04 ms    (27.6 %), step = 47.12 us     (118 m%)
    tran: time = 13.01 ms    (32.5 %), step = 49.87 us     (125 m%)
    tran: time = 15.02 ms    (37.5 %), step = 48.58 us     (121 m%)
    tran: time = 17.03 ms    (42.6 %), step = 47.51 us     (119 m%)
    tran: time = 19.05 ms    (47.6 %), step = 46.68 us     (117 m%)
    tran: time = 21.01 ms    (52.5 %), step = 49.13 us     (123 m%)
    tran: time = 23.03 ms    (57.6 %), step = 47.97 us     (120 m%)
    tran: time = 25.04 ms    (62.6 %), step = 47.04 us     (118 m%)
    tran: time = 27.01 ms    (67.5 %), step = 49.73 us     (124 m%)
    tran: time = 29.02 ms    (72.6 %), step = 48.47 us     (121 m%)
    tran: time = 31.03 ms    (77.6 %), step = 47.43 us     (119 m%)
    tran: time = 33 ms       (82.5 %), step = 50 us        (125 m%)
    tran: time = 35.01 ms    (87.5 %), step = 49.01 us     (123 m%)
    tran: time = 37.03 ms    (92.6 %), step = 47.86 us     (120 m%)
    tran: time = 39.04 ms    (97.6 %), step = 46.95 us     (117 m%)
Number of accepted tran steps =             851

Maximum value achieved for any signal of each quantity: 
V: V(S<0>) = 3.3 V
I: I(V0:p) = 6.435 uA
Maximum value of each quantity, excluding Verilog-A modules or dangling current sources:
V: V(vout_filt) = 1.614 V
I: I(V0:p) = 6.435 uA

~~~~~~~~~~~~~~~~~~~~~~~~~~~~~~~~~
Post-Transient Simulation Summary
~~~~~~~~~~~~~~~~~~~~~~~~~~~~~~~~~
   -   To further speed up simulation, consider
          add ++aps on command line
   -   Non-default settings that could significantly slow down simulation
          errpreset = conservative, default moderate
          reltol = 10e-06, default 100e-06 (conservative)
~~~~~~~~~~~~~~~~~~~~~~~~~~~~~~~~~


During simulation, the CPU load for active processors is :
         0 (100.0 %)     1 (18.3 %)      2 (20.3 %)      3 (5.7 %)
         4 (17.1 %)      5 (3.5 %)       6 (3.6 %)       7 (7.7 %)
         8 (4.2 %)       9 (1.4 %)      10 (2.2 %)      11 (17.6 %)
        12 (8.5 %)      13 (2.8 %)      14 (1.4 %)      15 (5.0 %)
        16 (37.6 %)     17 (41.5 %)     19 (21.4 %)     20 (80.4 %)
        21 (85.4 %)     22 (17.9 %)     23 (2.8 %)      24 (5.0 %)
        25 (8.5 %)      26 (5.0 %)      27 (2.9 %)      28 (4.3 %)
        29 (7.7 %)      30 (27.7 %)     31 (100.0 %)    32 (55.6 %)
        33 (2.8 %)      34 (36.9 %)     35 (62.4 %)     36 (49.7 %)
        37 (97.9 %)     38 (47.5 %)     39 (2.2 %)      40 (4.3 %)
        41 (5.6 %)      42 (2.8 %)      43 (2.2 %)      44 (12.1 %)
        45 (100.0 %)    47 (1.4 %)      
        Total: 1152.3%
Initial condition solution time: CPU = 1.016 ms, elapsed = 1.01781 ms.
Intrinsic tran analysis time:    CPU = 442.327 ms, elapsed = 443.685 ms.
Total time required for tran analysis `tran': CPU = 445.386 ms, elapsed = 447.414 ms, util. = 99.5%.
Time accumulated: CPU = 961.851 ms, elapsed = 1.49061 s.
Peak resident memory used = 209 Mbytes.


Notice from spectre during transient analysis `tran', during Monte Carlo analysis `mc1'.
    34 warnings suppressed.

finalTimeOP: writing operating point information to rawfile.

Opening the PSF file ../psf/nom/finalTimeOP.info ...
modelParameter: writing model parameter values to rawfile.

Opening the PSF file ../psf/nom/modelParameter.info ...
element: writing instance parameter values to rawfile.

Opening the PSF file ../psf/nom/element.info ...
outputParameter: writing output parameter values to rawfile.

Opening the PSF file ../psf/nom/outputParameter.info ...
designParamVals: writing netlist parameters to rawfile.

Opening the PSFASCII file ../psf/nom/designParamVals.info ...
primitives: writing primitives to rawfile.

Opening the PSFASCII file ../psf/nom/primitives.info.primitives ...
subckts: writing subcircuits to rawfile.

Opening the PSFASCII file ../psf/nom/subckts.info.subckts ...
Opening iteration number and data-directory mapping file:  /home/davidevi/Desktop/myproject/Sim/VGA/VGA_1_tb/adexl/results/data/MonteCarlo.3/23/Linerity_MC/groupRunDataDir/netlist/../psf/mc1.mapping

Statistical parameters:
    Defined process parameters: 629
    Defined mismatch parameters (subckt based): 86
    Non-referenced mismatch parameters: 80
    Number of random variables: 718
    Gaussian truncation for process parameters: 4.00 sigma
    Gaussian truncation for mismatch parameters: 4.00 sigma


Opening the PSF file ../psf/mc1_dcOp.montecarlo ...

Opening the PSF file ../psf/mc1_dcOpInfo.montecarlo ...

Opening the PSF file ../psf/mc1_tran.montecarlo ...

Opening the PSF file ../psf/mc1_finalTimeOP.montecarlo ...

Opening the PSF file ../psf/mc1_modelParameter.montecarlo ...

Opening the PSF file ../psf/mc1_element.montecarlo ...

Opening the PSF file ../psf/mc1_outputParameter.montecarlo ...

Opening the PSF file ../psf/mc1_designParamVals.montecarlo ...

Opening the PSF file ../psf/mc1_primitives.montecarlo ...

Opening the PSF file ../psf/mc1_subckts.montecarlo ...

**** Performing monte carlo loop for `mc1'

1   0.00% 

*****************************************************************************************
* 
* INFO: AMS_processOption = C35B4C3
* 
* INFO: Valid Modules  PIP VG5 HIRES
* 
*****************************************************************************************


******************
DC Analysis `dcOp'
******************

Opening the PSF file ../psf/mc1_separate/001/dcOp.dc ...
Important parameter values:
    reltol = 100e-06
    abstol(V) = 1 uV
    abstol(I) = 1 pA
    temp = 85 C
    tnom = 27 C
    tempeffects = all
    gmindc = 1 pS
    rabsshort = 1 mOhm

Notice from spectre at iteration = 1 during DC analysis `dcOp', during Monte Carlo analysis `mc1'.
    Bad pivoting is found during DC analysis. Option dc_pivot_check=yes is recommended for possible improvement of convergence.


Maximum value achieved for any signal of each quantity: 
V: V(S<0>) = 3.3 V
I: I(V0:p) = 6.224 uA
Maximum value of each quantity, excluding Verilog-A modules or dangling current sources:
V: V(vout_filt) = 1.6 V
I: I(V0:p) = 6.224 uA

Warning from spectre at iteration = 1 during check, during DC analysis `dcOp', during Monte Carlo analysis `mc1'.
    WARNING (CMI-2943): Parameter checks have been ignored because the valid value for parameter 'trise' could not be found in 'C1'.
    WARNING (CMI-2943): Parameter checks have been ignored because the valid value for parameter 'trise' could not be found in 'I0.R2.CM'.
    WARNING (CMI-2943): Parameter checks have been ignored because the valid value for parameter 'trise' could not be found in 'I0.R2.CS1'.
    WARNING (CMI-2943): Parameter checks have been ignored because the valid value for parameter 'trise' could not be found in 'I0.R2.CS0'.
    WARNING (CMI-2943): Parameter checks have been ignored because the valid value for parameter 'trise' could not be found in 'I0.C8<3>.C1'.
        Further occurrences of this warning will be suppressed.

Convergence achieved in 19 iterations.
DC simulation time: CPU = 6.874 ms, elapsed = 8.183 ms.
Total time required for dc analysis `dcOp': CPU = 7.649 ms, elapsed = 8.94499 ms, util. = 85.5%.
Time accumulated: CPU = 1.04308 s, elapsed = 1.5893 s.
Peak resident memory used = 212 Mbytes.


Notice from spectre at iteration = 1 during Monte Carlo analysis `mc1'.
    34 warnings suppressed.

dcOpInfo: writing operating point information to rawfile.

Opening the PSF file ../psf/mc1_separate/001/dcOpInfo.info ...

************************************************
Transient Analysis `tran': time = (0 s -> 40 ms)
************************************************

Opening the PSF file ../psf/mc1_separate/001/tran.tran.tran ...

Notice from spectre at iteration = 1 during IC analysis, during transient analysis `tran', during Monte Carlo analysis `mc1'.
    Bad pivoting is found during DC analysis. Option dc_pivot_check=yes is recommended for possible improvement of convergence.
Warning from spectre at iteration = 1 during check, during IC analysis, during transient analysis `tran', during Monte Carlo analysis `mc1'.
    WARNING (CMI-2943): Parameter checks have been ignored because the valid value for parameter 'trise' could not be found in 'C1'.
    WARNING (CMI-2943): Parameter checks have been ignored because the valid value for parameter 'trise' could not be found in 'I0.R2.CM'.
    WARNING (CMI-2943): Parameter checks have been ignored because the valid value for parameter 'trise' could not be found in 'I0.R2.CS1'.
    WARNING (CMI-2943): Parameter checks have been ignored because the valid value for parameter 'trise' could not be found in 'I0.R2.CS0'.
    WARNING (CMI-2943): Parameter checks have been ignored because the valid value for parameter 'trise' could not be found in 'I0.C8<3>.C1'.
        Further occurrences of this warning will be suppressed.

Convergence achieved in 19 iterations.
DC simulation time: CPU = 2.801 ms, elapsed = 2.80809 ms.
Important parameter values:
    start = 0 s
    outputstart = 0 s
    stop = 40 ms
    step = 40 us
    maxstep = 400 us
    ic = all
    useprevic = no
    skipdc = no
    reltol = 10e-06
    abstol(V) = 1 uV
    abstol(I) = 1 pA
    temp = 85 C
    tnom = 27 C
    tempeffects = all
    errpreset = conservative
    method = gear2only
    lteratio = 10
    relref = alllocal
    cmin = 0 F
    gmin = 1 pS
    rabsshort = 1 mOhm


Notice from spectre at iteration = 1 during transient analysis `tran', during Monte Carlo analysis `mc1'.
    Multithreading is disabled due to the size of the design being too small.


Output and IC/nodeset summary:
                 save   8       (current)
                 save   87      (voltage)

    tran: time = 1.017 ms    (2.54 %), step = 48.76 us     (122 m%)
    tran: time = 3.031 ms    (7.58 %), step = 47.65 us     (119 m%)
    tran: time = 5.044 ms    (12.6 %), step = 46.79 us     (117 m%)
    tran: time = 7.011 ms    (17.5 %), step = 49.3 us      (123 m%)
    tran: time = 9.025 ms    (22.6 %), step = 48.11 us     (120 m%)
    tran: time = 11.04 ms    (27.6 %), step = 47.14 us     (118 m%)
    tran: time = 13.01 ms    (32.5 %), step = 49.9 us      (125 m%)
    tran: time = 15.02 ms    (37.5 %), step = 48.6 us      (122 m%)
    tran: time = 17.03 ms    (42.6 %), step = 47.52 us     (119 m%)
    tran: time = 19.05 ms    (47.6 %), step = 46.69 us     (117 m%)
    tran: time = 21.01 ms    (52.5 %), step = 49.13 us     (123 m%)
    tran: time = 23.03 ms    (57.6 %), step = 47.97 us     (120 m%)
    tran: time = 25.04 ms    (62.6 %), step = 47.03 us     (118 m%)
    tran: time = 27.01 ms    (67.5 %), step = 49.72 us     (124 m%)
    tran: time = 29.02 ms    (72.6 %), step = 48.46 us     (121 m%)
    tran: time = 31.03 ms    (77.6 %), step = 47.41 us     (119 m%)
    tran: time = 33 ms       (82.5 %), step = 50 us        (125 m%)
    tran: time = 35.01 ms    (87.5 %), step = 48.98 us     (122 m%)
    tran: time = 37.03 ms    (92.6 %), step = 47.83 us     (120 m%)
    tran: time = 39.04 ms    (97.6 %), step = 46.93 us     (117 m%)
Number of accepted tran steps =             851

Maximum value achieved for any signal of each quantity: 
V: V(S<0>) = 3.3 V
I: I(V0:p) = 6.224 uA
Maximum value of each quantity, excluding Verilog-A modules or dangling current sources:
V: V(vout_filt) = 1.614 V
I: I(V0:p) = 6.224 uA

~~~~~~~~~~~~~~~~~~~~~~~~~~~~~~~~~
Post-Transient Simulation Summary
~~~~~~~~~~~~~~~~~~~~~~~~~~~~~~~~~
   -   To further speed up simulation, consider
          add ++aps on command line
   -   Non-default settings that could significantly slow down simulation
          errpreset = conservative, default moderate
          reltol = 10e-06, default 100e-06 (conservative)
~~~~~~~~~~~~~~~~~~~~~~~~~~~~~~~~~


During simulation, the CPU load for active processors is :
         0 (100.0 %)     1 (14.9 %)      2 (15.6 %)      3 (10.3 %)
         4 (37.6 %)      5 (3.0 %)       6 (4.1 %)       7 (8.1 %)
         8 (4.5 %)       9 (1.0 %)      10 (1.6 %)      11 (17.3 %)
        12 (11.6 %)     13 (2.6 %)      14 (1.5 %)      15 (4.1 %)
        16 (28.4 %)     17 (57.3 %)     18 (1.6 %)      19 (16.0 %)
        20 (60.8 %)     21 (89.5 %)     22 (41.4 %)     23 (4.1 %)
        24 (19.4 %)     25 (8.1 %)      26 (4.6 %)      27 (4.6 %)
        28 (3.6 %)      29 (7.1 %)      30 (21.4 %)     31 (100.0 %)
        32 (64.0 %)     33 (2.5 %)      34 (29.4 %)     35 (68.9 %)
        36 (36.0 %)     37 (97.5 %)     38 (62.2 %)     39 (2.6 %)
        40 (3.1 %)      41 (4.1 %)      42 (2.6 %)      43 (2.6 %)
        44 (9.3 %)      45 (100.0 %)    47 (1.5 %)      
        Total: 1192.4%
Initial condition solution time: CPU = 2.837 ms, elapsed = 2.84505 ms.
Intrinsic tran analysis time:    CPU = 443.22 ms, elapsed = 445.261 ms.
Total time required for tran analysis `tran': CPU = 447.909 ms, elapsed = 450.471 ms, util. = 99.4%.
Time accumulated: CPU = 1.49774 s, elapsed = 2.04951 s.
Peak resident memory used = 213 Mbytes.


Notice from spectre during transient analysis `tran', during Monte Carlo analysis `mc1'.
    34 warnings suppressed.

finalTimeOP: writing operating point information to rawfile.

Opening the PSF file ../psf/mc1_separate/001/finalTimeOP.info ...
modelParameter: writing model parameter values to rawfile.

Opening the PSF file ../psf/mc1_separate/001/modelParameter.info ...
element: writing instance parameter values to rawfile.

Opening the PSF file ../psf/mc1_separate/001/element.info ...
outputParameter: writing output parameter values to rawfile.

Opening the PSF file ../psf/mc1_separate/001/outputParameter.info ...
designParamVals: writing netlist parameters to rawfile.

Opening the PSFASCII file ../psf/mc1_separate/001/designParamVals.info ...
primitives: writing primitives to rawfile.

Opening the PSFASCII file ../psf/mc1_separate/001/primitives.info.primitives ...
subckts: writing subcircuits to rawfile.

Opening the PSFASCII file ../psf/mc1_separate/001/subckts.info.subckts ...
2   2.04% 

*****************************************************************************************
* 
* INFO: AMS_processOption = C35B4C3
* 
* INFO: Valid Modules  PIP VG5 HIRES
* 
*****************************************************************************************


******************
DC Analysis `dcOp'
******************

Opening the PSF file ../psf/mc1_separate/002/dcOp.dc ...
Important parameter values:
    reltol = 100e-06
    abstol(V) = 1 uV
    abstol(I) = 1 pA
    temp = 85 C
    tnom = 27 C
    tempeffects = all
    gmindc = 1 pS
    rabsshort = 1 mOhm

Notice from spectre during DC analysis `dcOp', during Monte Carlo analysis `mc1'.
    Bad pivoting is found during DC analysis. Option dc_pivot_check=yes is recommended for possible improvement of convergence.


Maximum value achieved for any signal of each quantity: 
V: V(S<0>) = 3.3 V
I: I(V0:p) = 6.457 uA
Maximum value of each quantity, excluding Verilog-A modules or dangling current sources:
V: V(vout_filt) = 1.6 V
I: I(V0:p) = 6.457 uA

Warning from spectre during check, during DC analysis `dcOp', during Monte Carlo analysis `mc1'.
    WARNING (CMI-2943): Parameter checks have been ignored because the valid value for parameter 'trise' could not be found in 'C1'.
    WARNING (CMI-2943): Parameter checks have been ignored because the valid value for parameter 'trise' could not be found in 'I0.R2.CM'.
    WARNING (CMI-2943): Parameter checks have been ignored because the valid value for parameter 'trise' could not be found in 'I0.R2.CS1'.
    WARNING (CMI-2943): Parameter checks have been ignored because the valid value for parameter 'trise' could not be found in 'I0.R2.CS0'.
    WARNING (CMI-2943): Parameter checks have been ignored because the valid value for parameter 'trise' could not be found in 'I0.C8<3>.C1'.
        Further occurrences of this warning will be suppressed.

Convergence achieved in 19 iterations.
DC simulation time: CPU = 4.908 ms, elapsed = 6.495 ms.
Total time required for dc analysis `dcOp': CPU = 5.327 ms, elapsed = 6.90603 ms, util. = 77.1%.
Time accumulated: CPU = 1.53732 s, elapsed = 2.10468 s.
Peak resident memory used = 213 Mbytes.


Notice from spectre during Monte Carlo analysis `mc1'.
    34 warnings suppressed.

dcOpInfo: writing operating point information to rawfile.

Opening the PSF file ../psf/mc1_separate/002/dcOpInfo.info ...

************************************************
Transient Analysis `tran': time = (0 s -> 40 ms)
************************************************

Opening the PSF file ../psf/mc1_separate/002/tran.tran.tran ...

Notice from spectre during IC analysis, during transient analysis `tran', during Monte Carlo analysis `mc1'.
    Bad pivoting is found during DC analysis. Option dc_pivot_check=yes is recommended for possible improvement of convergence.
Warning from spectre during check, during IC analysis, during transient analysis `tran', during Monte Carlo analysis `mc1'.
    WARNING (CMI-2943): Parameter checks have been ignored because the valid value for parameter 'trise' could not be found in 'C1'.
    WARNING (CMI-2943): Parameter checks have been ignored because the valid value for parameter 'trise' could not be found in 'I0.R2.CM'.
    WARNING (CMI-2943): Parameter checks have been ignored because the valid value for parameter 'trise' could not be found in 'I0.R2.CS1'.
    WARNING (CMI-2943): Parameter checks have been ignored because the valid value for parameter 'trise' could not be found in 'I0.R2.CS0'.
    WARNING (CMI-2943): Parameter checks have been ignored because the valid value for parameter 'trise' could not be found in 'I0.C8<3>.C1'.
        Further occurrences of this warning will be suppressed.

Convergence achieved in 19 iterations.
DC simulation time: CPU = 2.472 ms, elapsed = 2.47192 ms.
Important parameter values:
    start = 0 s
    outputstart = 0 s
    stop = 40 ms
    step = 40 us
    maxstep = 400 us
    ic = all
    useprevic = no
    skipdc = no
    reltol = 10e-06
    abstol(V) = 1 uV
    abstol(I) = 1 pA
    temp = 85 C
    tnom = 27 C
    tempeffects = all
    errpreset = conservative
    method = gear2only
    lteratio = 10
    relref = alllocal
    cmin = 0 F
    gmin = 1 pS
    rabsshort = 1 mOhm


Notice from spectre during transient analysis `tran', during Monte Carlo analysis `mc1'.
    Multithreading is disabled due to the size of the design being too small.


Output and IC/nodeset summary:
                 save   8       (current)
                 save   87      (voltage)

    tran: time = 1.016 ms    (2.54 %), step = 48.89 us     (122 m%)
    tran: time = 3.029 ms    (7.57 %), step = 47.75 us     (119 m%)
    tran: time = 5.043 ms    (12.6 %), step = 46.87 us     (117 m%)
    tran: time = 7.01 ms     (17.5 %), step = 49.44 us     (124 m%)
    tran: time = 9.023 ms    (22.6 %), step = 48.22 us     (121 m%)
    tran: time = 11.04 ms    (27.6 %), step = 47.23 us     (118 m%)
    tran: time = 13 ms       (32.5 %), step = 50 us        (125 m%)
    tran: time = 15.02 ms    (37.5 %), step = 48.72 us     (122 m%)
    tran: time = 17.03 ms    (42.6 %), step = 47.62 us     (119 m%)
    tran: time = 19.04 ms    (47.6 %), step = 46.77 us     (117 m%)
    tran: time = 21.01 ms    (52.5 %), step = 49.26 us     (123 m%)
    tran: time = 23.03 ms    (57.6 %), step = 48.07 us     (120 m%)
    tran: time = 25.04 ms    (62.6 %), step = 47.11 us     (118 m%)
    tran: time = 27.01 ms    (67.5 %), step = 49.86 us     (125 m%)
    tran: time = 29.02 ms    (72.5 %), step = 48.57 us     (121 m%)
    tran: time = 31.03 ms    (77.6 %), step = 47.5 us      (119 m%)
    tran: time = 33.05 ms    (82.6 %), step = 46.67 us     (117 m%)
    tran: time = 35.01 ms    (87.5 %), step = 49.1 us      (123 m%)
    tran: time = 37.03 ms    (92.6 %), step = 47.94 us     (120 m%)
    tran: time = 39.04 ms    (97.6 %), step = 47.01 us     (118 m%)
Number of accepted tran steps =             851

Maximum value achieved for any signal of each quantity: 
V: V(S<0>) = 3.3 V
I: I(V0:p) = 6.457 uA
Maximum value of each quantity, excluding Verilog-A modules or dangling current sources:
V: V(vout_filt) = 1.614 V
I: I(V0:p) = 6.457 uA

~~~~~~~~~~~~~~~~~~~~~~~~~~~~~~~~~
Post-Transient Simulation Summary
~~~~~~~~~~~~~~~~~~~~~~~~~~~~~~~~~
   -   To further speed up simulation, consider
          add ++aps on command line
   -   Non-default settings that could significantly slow down simulation
          errpreset = conservative, default moderate
          reltol = 10e-06, default 100e-06 (conservative)
~~~~~~~~~~~~~~~~~~~~~~~~~~~~~~~~~


During simulation, the CPU load for active processors is :
         0 (100.0 %)     1 (13.4 %)      2 (13.7 %)      3 (11.4 %)
         4 (30.6 %)      5 (2.8 %)       6 (4.4 %)       7 (7.6 %)
         8 (3.6 %)      10 (1.6 %)      11 (17.4 %)     12 (21.6 %)
        13 (2.8 %)      14 (1.6 %)      15 (3.6 %)      16 (22.7 %)
        17 (62.8 %)     18 (4.1 %)      19 (13.1 %)     20 (50.8 %)
        21 (91.6 %)     22 (52.0 %)     23 (4.0 %)      24 (16.6 %)
        25 (6.5 %)      26 (5.3 %)      27 (4.5 %)      28 (3.3 %)
        29 (6.5 %)      30 (17.8 %)     31 (100.0 %)    32 (70.5 %)
        33 (2.4 %)      34 (23.5 %)     35 (75.0 %)     36 (32.1 %)
        37 (97.2 %)     38 (65.7 %)     39 (2.0 %)      40 (3.3 %)
        41 (3.6 %)      42 (2.0 %)      43 (2.5 %)      44 (7.8 %)
        45 (100.0 %)    46 (1.2 %)      47 (2.0 %)      
        Total: 1189.6%
Initial condition solution time: CPU = 2.501 ms, elapsed = 2.50292 ms.
Intrinsic tran analysis time:    CPU = 446.416 ms, elapsed = 448.367 ms.
Total time required for tran analysis `tran': CPU = 450.552 ms, elapsed = 453.403 ms, util. = 99.4%.
Time accumulated: CPU = 1.99389 s, elapsed = 2.56737 s.
Peak resident memory used = 213 Mbytes.


Notice from spectre during transient analysis `tran', during Monte Carlo analysis `mc1'.
    34 warnings suppressed.

finalTimeOP: writing operating point information to rawfile.

Opening the PSF file ../psf/mc1_separate/002/finalTimeOP.info ...
modelParameter: writing model parameter values to rawfile.

Opening the PSF file ../psf/mc1_separate/002/modelParameter.info ...
element: writing instance parameter values to rawfile.

Opening the PSF file ../psf/mc1_separate/002/element.info ...
outputParameter: writing output parameter values to rawfile.

Opening the PSF file ../psf/mc1_separate/002/outputParameter.info ...
designParamVals: writing netlist parameters to rawfile.

Opening the PSFASCII file ../psf/mc1_separate/002/designParamVals.info ...
primitives: writing primitives to rawfile.

Opening the PSFASCII file ../psf/mc1_separate/002/primitives.info.primitives ...
subckts: writing subcircuits to rawfile.

Opening the PSFASCII file ../psf/mc1_separate/002/subckts.info.subckts ...
3   4.08% 

*****************************************************************************************
* 
* INFO: AMS_processOption = C35B4C3
* 
* INFO: Valid Modules  PIP VG5 HIRES
* 
*****************************************************************************************


******************
DC Analysis `dcOp'
******************

Opening the PSF file ../psf/mc1_separate/003/dcOp.dc ...
Important parameter values:
    reltol = 100e-06
    abstol(V) = 1 uV
    abstol(I) = 1 pA
    temp = 85 C
    tnom = 27 C
    tempeffects = all
    gmindc = 1 pS
    rabsshort = 1 mOhm

Notice from spectre during DC analysis `dcOp', during Monte Carlo analysis `mc1'.
    Bad pivoting is found during DC analysis. Option dc_pivot_check=yes is recommended for possible improvement of convergence.


Maximum value achieved for any signal of each quantity: 
V: V(S<0>) = 3.3 V
I: I(V0:p) = 6.363 uA
Maximum value of each quantity, excluding Verilog-A modules or dangling current sources:
V: V(vout_filt) = 1.6 V
I: I(V0:p) = 6.363 uA

Warning from spectre during check, during DC analysis `dcOp', during Monte Carlo analysis `mc1'.
    WARNING (CMI-2943): Parameter checks have been ignored because the valid value for parameter 'trise' could not be found in 'C1'.
    WARNING (CMI-2943): Parameter checks have been ignored because the valid value for parameter 'trise' could not be found in 'I0.R2.CM'.
    WARNING (CMI-2943): Parameter checks have been ignored because the valid value for parameter 'trise' could not be found in 'I0.R2.CS1'.
    WARNING (CMI-2943): Parameter checks have been ignored because the valid value for parameter 'trise' could not be found in 'I0.R2.CS0'.
    WARNING (CMI-2943): Parameter checks have been ignored because the valid value for parameter 'trise' could not be found in 'I0.C8<3>.C1'.
        Further occurrences of this warning will be suppressed.

Convergence achieved in 19 iterations.
DC simulation time: CPU = 5.104 ms, elapsed = 6.44112 ms.
Total time required for dc analysis `dcOp': CPU = 5.653 ms, elapsed = 6.98996 ms, util. = 80.9%.
Time accumulated: CPU = 2.03514 s, elapsed = 2.62054 s.
Peak resident memory used = 213 Mbytes.


Notice from spectre during Monte Carlo analysis `mc1'.
    34 warnings suppressed.

dcOpInfo: writing operating point information to rawfile.

Opening the PSF file ../psf/mc1_separate/003/dcOpInfo.info ...

************************************************
Transient Analysis `tran': time = (0 s -> 40 ms)
************************************************

Opening the PSF file ../psf/mc1_separate/003/tran.tran.tran ...

Notice from spectre during IC analysis, during transient analysis `tran', during Monte Carlo analysis `mc1'.
    Bad pivoting is found during DC analysis. Option dc_pivot_check=yes is recommended for possible improvement of convergence.
Warning from spectre during check, during IC analysis, during transient analysis `tran', during Monte Carlo analysis `mc1'.
    WARNING (CMI-2943): Parameter checks have been ignored because the valid value for parameter 'trise' could not be found in 'C1'.
    WARNING (CMI-2943): Parameter checks have been ignored because the valid value for parameter 'trise' could not be found in 'I0.R2.CM'.
    WARNING (CMI-2943): Parameter checks have been ignored because the valid value for parameter 'trise' could not be found in 'I0.R2.CS1'.
    WARNING (CMI-2943): Parameter checks have been ignored because the valid value for parameter 'trise' could not be found in 'I0.R2.CS0'.
    WARNING (CMI-2943): Parameter checks have been ignored because the valid value for parameter 'trise' could not be found in 'I0.C8<3>.C1'.
        Further occurrences of this warning will be suppressed.

Convergence achieved in 19 iterations.
DC simulation time: CPU = 2.485 ms, elapsed = 2.4991 ms.
Important parameter values:
    start = 0 s
    outputstart = 0 s
    stop = 40 ms
    step = 40 us
    maxstep = 400 us
    ic = all
    useprevic = no
    skipdc = no
    reltol = 10e-06
    abstol(V) = 1 uV
    abstol(I) = 1 pA
    temp = 85 C
    tnom = 27 C
    tempeffects = all
    errpreset = conservative
    method = gear2only
    lteratio = 10
    relref = alllocal
    cmin = 0 F
    gmin = 1 pS
    rabsshort = 1 mOhm


Notice from spectre during transient analysis `tran', during Monte Carlo analysis `mc1'.
    Multithreading is disabled due to the size of the design being too small.


Output and IC/nodeset summary:
                 save   8       (current)
                 save   87      (voltage)

    tran: time = 1.017 ms    (2.54 %), step = 48.72 us     (122 m%)
    tran: time = 3.031 ms    (7.58 %), step = 47.62 us     (119 m%)
    tran: time = 5.044 ms    (12.6 %), step = 46.77 us     (117 m%)
    tran: time = 7.011 ms    (17.5 %), step = 49.28 us     (123 m%)
    tran: time = 9.025 ms    (22.6 %), step = 48.1 us      (120 m%)
    tran: time = 11.04 ms    (27.6 %), step = 47.14 us     (118 m%)
    tran: time = 13.01 ms    (32.5 %), step = 49.91 us     (125 m%)
    tran: time = 15.02 ms    (37.5 %), step = 48.62 us     (122 m%)
    tran: time = 17.03 ms    (42.6 %), step = 47.54 us     (119 m%)
    tran: time = 19.05 ms    (47.6 %), step = 46.71 us     (117 m%)
    tran: time = 21.01 ms    (52.5 %), step = 49.17 us     (123 m%)
    tran: time = 23.03 ms    (57.6 %), step = 48.01 us     (120 m%)
    tran: time = 25.04 ms    (62.6 %), step = 47.07 us     (118 m%)
    tran: time = 27.01 ms    (67.5 %), step = 49.79 us     (124 m%)
    tran: time = 29.02 ms    (72.5 %), step = 48.52 us     (121 m%)
    tran: time = 31.03 ms    (77.6 %), step = 47.47 us     (119 m%)
    tran: time = 33.05 ms    (82.6 %), step = 46.65 us     (117 m%)
    tran: time = 35.01 ms    (87.5 %), step = 49.08 us     (123 m%)
    tran: time = 37.03 ms    (92.6 %), step = 47.92 us     (120 m%)
    tran: time = 39.04 ms    (97.6 %), step = 47 us        (118 m%)
Number of accepted tran steps =             851

Maximum value achieved for any signal of each quantity: 
V: V(S<0>) = 3.3 V
I: I(V0:p) = 6.363 uA
Maximum value of each quantity, excluding Verilog-A modules or dangling current sources:
V: V(vout_filt) = 1.614 V
I: I(V0:p) = 6.363 uA

~~~~~~~~~~~~~~~~~~~~~~~~~~~~~~~~~
Post-Transient Simulation Summary
~~~~~~~~~~~~~~~~~~~~~~~~~~~~~~~~~
   -   To further speed up simulation, consider
          add ++aps on command line
   -   Non-default settings that could significantly slow down simulation
          errpreset = conservative, default moderate
          reltol = 10e-06, default 100e-06 (conservative)
~~~~~~~~~~~~~~~~~~~~~~~~~~~~~~~~~


During simulation, the CPU load for active processors is :
         0 (100.0 %)     1 (13.3 %)      2 (12.7 %)      3 (11.1 %)
         4 (29.1 %)      5 (4.7 %)       6 (3.7 %)       7 (6.3 %)
         8 (3.3 %)       9 (1.7 %)      10 (1.7 %)      11 (17.8 %)
        12 (18.9 %)     13 (2.7 %)      14 (1.7 %)      15 (4.0 %)
        16 (19.2 %)     17 (52.5 %)     18 (20.3 %)     19 (11.1 %)
        20 (42.3 %)     21 (93.1 %)     22 (60.1 %)     23 (5.4 %)
        24 (22.1 %)     25 (6.7 %)      26 (5.4 %)      27 (4.4 %)
        28 (4.4 %)      29 (5.7 %)      30 (15.8 %)     31 (100.0 %)
        32 (74.9 %)     33 (2.7 %)      34 (34.4 %)     35 (64.1 %)
        36 (27.2 %)     37 (97.0 %)     38 (71.6 %)     39 (2.7 %)
        40 (4.4 %)      41 (3.4 %)      42 (2.4 %)      43 (3.0 %)
        44 (7.1 %)      45 (100.0 %)    46 (1.3 %)      47 (2.0 %)
        Total: 1199.2%
Initial condition solution time: CPU = 2.516 ms, elapsed = 2.52986 ms.
Intrinsic tran analysis time:    CPU = 446.456 ms, elapsed = 447.9 ms.
Total time required for tran analysis `tran': CPU = 450.652 ms, elapsed = 452.731 ms, util. = 99.5%.
Time accumulated: CPU = 2.492 s, elapsed = 3.08175 s.
Peak resident memory used = 213 Mbytes.


Notice from spectre during transient analysis `tran', during Monte Carlo analysis `mc1'.
    34 warnings suppressed.

finalTimeOP: writing operating point information to rawfile.

Opening the PSF file ../psf/mc1_separate/003/finalTimeOP.info ...
modelParameter: writing model parameter values to rawfile.

Opening the PSF file ../psf/mc1_separate/003/modelParameter.info ...
element: writing instance parameter values to rawfile.

Opening the PSF file ../psf/mc1_separate/003/element.info ...
outputParameter: writing output parameter values to rawfile.

Opening the PSF file ../psf/mc1_separate/003/outputParameter.info ...
designParamVals: writing netlist parameters to rawfile.

Opening the PSFASCII file ../psf/mc1_separate/003/designParamVals.info ...
primitives: writing primitives to rawfile.

Opening the PSFASCII file ../psf/mc1_separate/003/primitives.info.primitives ...
subckts: writing subcircuits to rawfile.

Opening the PSFASCII file ../psf/mc1_separate/003/subckts.info.subckts ...
    mc1: iteration = 3           (4.08 %), step = 1            (2.04 %)
4   6.12% 

*****************************************************************************************
* 
* INFO: AMS_processOption = C35B4C3
* 
* INFO: Valid Modules  PIP VG5 HIRES
* 
*****************************************************************************************


******************
DC Analysis `dcOp'
******************

Opening the PSF file ../psf/mc1_separate/004/dcOp.dc ...
Important parameter values:
    reltol = 100e-06
    abstol(V) = 1 uV
    abstol(I) = 1 pA
    temp = 85 C
    tnom = 27 C
    tempeffects = all
    gmindc = 1 pS
    rabsshort = 1 mOhm

Notice from spectre during DC analysis `dcOp', during Monte Carlo analysis `mc1'.
    Bad pivoting is found during DC analysis. Option dc_pivot_check=yes is recommended for possible improvement of convergence.


Maximum value achieved for any signal of each quantity: 
V: V(S<0>) = 3.3 V
I: I(V0:p) = 6.493 uA
Maximum value of each quantity, excluding Verilog-A modules or dangling current sources:
V: V(net1) = 1.6 V
I: I(V0:p) = 6.493 uA

Warning from spectre during check, during DC analysis `dcOp', during Monte Carlo analysis `mc1'.
    WARNING (CMI-2943): Parameter checks have been ignored because the valid value for parameter 'trise' could not be found in 'C1'.
    WARNING (CMI-2943): Parameter checks have been ignored because the valid value for parameter 'trise' could not be found in 'I0.R2.CM'.
    WARNING (CMI-2943): Parameter checks have been ignored because the valid value for parameter 'trise' could not be found in 'I0.R2.CS1'.
    WARNING (CMI-2943): Parameter checks have been ignored because the valid value for parameter 'trise' could not be found in 'I0.R2.CS0'.
    WARNING (CMI-2943): Parameter checks have been ignored because the valid value for parameter 'trise' could not be found in 'I0.C8<3>.C1'.
        Further occurrences of this warning will be suppressed.

Convergence achieved in 19 iterations.
DC simulation time: CPU = 4.938 ms, elapsed = 6.22702 ms.
Total time required for dc analysis `dcOp': CPU = 5.417 ms, elapsed = 6.71005 ms, util. = 80.7%.
Time accumulated: CPU = 2.53124 s, elapsed = 3.13297 s.
Peak resident memory used = 213 Mbytes.


Notice from spectre during Monte Carlo analysis `mc1'.
    34 warnings suppressed.

dcOpInfo: writing operating point information to rawfile.

Opening the PSF file ../psf/mc1_separate/004/dcOpInfo.info ...

************************************************
Transient Analysis `tran': time = (0 s -> 40 ms)
************************************************

Opening the PSF file ../psf/mc1_separate/004/tran.tran.tran ...

Notice from spectre during IC analysis, during transient analysis `tran', during Monte Carlo analysis `mc1'.
    Bad pivoting is found during DC analysis. Option dc_pivot_check=yes is recommended for possible improvement of convergence.
Warning from spectre during check, during IC analysis, during transient analysis `tran', during Monte Carlo analysis `mc1'.
    WARNING (CMI-2943): Parameter checks have been ignored because the valid value for parameter 'trise' could not be found in 'C1'.
    WARNING (CMI-2943): Parameter checks have been ignored because the valid value for parameter 'trise' could not be found in 'I0.R2.CM'.
    WARNING (CMI-2943): Parameter checks have been ignored because the valid value for parameter 'trise' could not be found in 'I0.R2.CS1'.
    WARNING (CMI-2943): Parameter checks have been ignored because the valid value for parameter 'trise' could not be found in 'I0.R2.CS0'.
    WARNING (CMI-2943): Parameter checks have been ignored because the valid value for parameter 'trise' could not be found in 'I0.C8<3>.C1'.
        Further occurrences of this warning will be suppressed.

Convergence achieved in 19 iterations.
DC simulation time: CPU = 2.459 ms, elapsed = 2.46 ms.
Important parameter values:
    start = 0 s
    outputstart = 0 s
    stop = 40 ms
    step = 40 us
    maxstep = 400 us
    ic = all
    useprevic = no
    skipdc = no
    reltol = 10e-06
    abstol(V) = 1 uV
    abstol(I) = 1 pA
    temp = 85 C
    tnom = 27 C
    tempeffects = all
    errpreset = conservative
    method = gear2only
    lteratio = 10
    relref = alllocal
    cmin = 0 F
    gmin = 1 pS
    rabsshort = 1 mOhm


Notice from spectre during transient analysis `tran', during Monte Carlo analysis `mc1'.
    Multithreading is disabled due to the size of the design being too small.


Output and IC/nodeset summary:
                 save   8       (current)
                 save   87      (voltage)

    tran: time = 1.016 ms    (2.54 %), step = 48.83 us     (122 m%)
    tran: time = 3.029 ms    (7.57 %), step = 47.73 us     (119 m%)
    tran: time = 5.043 ms    (12.6 %), step = 46.87 us     (117 m%)
    tran: time = 7.009 ms    (17.5 %), step = 49.47 us     (124 m%)
    tran: time = 9.022 ms    (22.6 %), step = 48.28 us     (121 m%)
    tran: time = 11.04 ms    (27.6 %), step = 47.29 us     (118 m%)
    tran: time = 13 ms       (32.5 %), step = 50 us        (125 m%)
    tran: time = 15.02 ms    (37.5 %), step = 48.88 us     (122 m%)
    tran: time = 17.03 ms    (42.6 %), step = 47.77 us     (119 m%)
    tran: time = 19.04 ms    (47.6 %), step = 46.9 us      (117 m%)
    tran: time = 21.01 ms    (52.5 %), step = 49.53 us     (124 m%)
    tran: time = 23.02 ms    (57.6 %), step = 48.32 us     (121 m%)
    tran: time = 25.04 ms    (62.6 %), step = 47.33 us     (118 m%)
    tran: time = 27 ms       (67.5 %), step = 50 us        (125 m%)
    tran: time = 29.01 ms    (72.5 %), step = 48.93 us     (122 m%)
    tran: time = 31.03 ms    (77.6 %), step = 47.81 us     (120 m%)
    tran: time = 33.04 ms    (82.6 %), step = 46.93 us     (117 m%)
    tran: time = 35.01 ms    (87.5 %), step = 49.58 us     (124 m%)
    tran: time = 37.02 ms    (92.6 %), step = 48.37 us     (121 m%)
    tran: time = 39.03 ms    (97.6 %), step = 47.36 us     (118 m%)
Number of accepted tran steps =             852

Maximum value achieved for any signal of each quantity: 
V: V(S<0>) = 3.3 V
I: I(V0:p) = 6.493 uA
Maximum value of each quantity, excluding Verilog-A modules or dangling current sources:
V: V(vout_filt) = 1.612 V
I: I(V0:p) = 6.493 uA

~~~~~~~~~~~~~~~~~~~~~~~~~~~~~~~~~
Post-Transient Simulation Summary
~~~~~~~~~~~~~~~~~~~~~~~~~~~~~~~~~
   -   To further speed up simulation, consider
          add ++aps on command line
   -   Non-default settings that could significantly slow down simulation
          errpreset = conservative, default moderate
          reltol = 10e-06, default 100e-06 (conservative)
~~~~~~~~~~~~~~~~~~~~~~~~~~~~~~~~~


During simulation, the CPU load for active processors is :
         0 (100.0 %)     1 (12.5 %)      2 (11.4 %)      3 (10.9 %)
         4 (27.5 %)      5 (4.3 %)       6 (3.7 %)       7 (6.3 %)
         8 (3.1 %)       9 (2.3 %)      10 (1.7 %)      11 (18.9 %)
        12 (20.1 %)     13 (3.2 %)      14 (1.7 %)      15 (3.7 %)
        16 (16.7 %)     17 (45.4 %)     18 (31.4 %)     19 (11.5 %)
        20 (36.8 %)     21 (94.1 %)     22 (52.6 %)     23 (4.9 %)
        24 (31.4 %)     25 (6.3 %)      26 (5.2 %)      27 (3.7 %)
        28 (4.0 %)      29 (5.7 %)      30 (13.8 %)     31 (100.0 %)
        32 (78.0 %)     33 (2.6 %)      34 (43.7 %)     35 (55.0 %)
        36 (24.2 %)     37 (95.8 %)     38 (71.7 %)     39 (11.7 %)
        40 (5.5 %)      41 (3.2 %)      42 (2.6 %)      43 (2.9 %)
        44 (6.4 %)      45 (100.0 %)    46 (1.2 %)      47 (2.6 %)
        Total: 1201.7%
Initial condition solution time: CPU = 2.489 ms, elapsed = 2.49004 ms.
Intrinsic tran analysis time:    CPU = 448.46 ms, elapsed = 449.761 ms.
Total time required for tran analysis `tran': CPU = 452.518 ms, elapsed = 454.394 ms, util. = 99.6%.
Time accumulated: CPU = 2.98981 s, elapsed = 3.59558 s.
Peak resident memory used = 213 Mbytes.


Notice from spectre during transient analysis `tran', during Monte Carlo analysis `mc1'.
    34 warnings suppressed.

finalTimeOP: writing operating point information to rawfile.

Opening the PSF file ../psf/mc1_separate/004/finalTimeOP.info ...
modelParameter: writing model parameter values to rawfile.

Opening the PSF file ../psf/mc1_separate/004/modelParameter.info ...
element: writing instance parameter values to rawfile.

Opening the PSF file ../psf/mc1_separate/004/element.info ...
outputParameter: writing output parameter values to rawfile.

Opening the PSF file ../psf/mc1_separate/004/outputParameter.info ...
designParamVals: writing netlist parameters to rawfile.

Opening the PSFASCII file ../psf/mc1_separate/004/designParamVals.info ...
primitives: writing primitives to rawfile.

Opening the PSFASCII file ../psf/mc1_separate/004/primitives.info.primitives ...
subckts: writing subcircuits to rawfile.

Opening the PSFASCII file ../psf/mc1_separate/004/subckts.info.subckts ...
    mc1: iteration = 4           (6.12 %), step = 1            (2.04 %)
5   8.16% 

*****************************************************************************************
* 
* INFO: AMS_processOption = C35B4C3
* 
* INFO: Valid Modules  PIP VG5 HIRES
* 
*****************************************************************************************


******************
DC Analysis `dcOp'
******************

Opening the PSF file ../psf/mc1_separate/005/dcOp.dc ...
Important parameter values:
    reltol = 100e-06
    abstol(V) = 1 uV
    abstol(I) = 1 pA
    temp = 85 C
    tnom = 27 C
    tempeffects = all
    gmindc = 1 pS
    rabsshort = 1 mOhm

Notice from spectre during DC analysis `dcOp', during Monte Carlo analysis `mc1'.
    Bad pivoting is found during DC analysis. Option dc_pivot_check=yes is recommended for possible improvement of convergence.


Maximum value achieved for any signal of each quantity: 
V: V(S<0>) = 3.3 V
I: I(V0:p) = 6.415 uA
Maximum value of each quantity, excluding Verilog-A modules or dangling current sources:
V: V(vout_filt) = 1.6 V
I: I(V0:p) = 6.415 uA

Warning from spectre during check, during DC analysis `dcOp', during Monte Carlo analysis `mc1'.
    WARNING (CMI-2943): Parameter checks have been ignored because the valid value for parameter 'trise' could not be found in 'C1'.
    WARNING (CMI-2943): Parameter checks have been ignored because the valid value for parameter 'trise' could not be found in 'I0.R2.CM'.
    WARNING (CMI-2943): Parameter checks have been ignored because the valid value for parameter 'trise' could not be found in 'I0.R2.CS1'.
    WARNING (CMI-2943): Parameter checks have been ignored because the valid value for parameter 'trise' could not be found in 'I0.R2.CS0'.
    WARNING (CMI-2943): Parameter checks have been ignored because the valid value for parameter 'trise' could not be found in 'I0.C8<3>.C1'.
        Further occurrences of this warning will be suppressed.

Convergence achieved in 19 iterations.
DC simulation time: CPU = 5.372 ms, elapsed = 6.9232 ms.
Total time required for dc analysis `dcOp': CPU = 5.98 ms, elapsed = 7.53093 ms, util. = 79.4%.
Time accumulated: CPU = 3.03468 s, elapsed = 3.65291 s.
Peak resident memory used = 214 Mbytes.


Notice from spectre during Monte Carlo analysis `mc1'.
    34 warnings suppressed.

dcOpInfo: writing operating point information to rawfile.

Opening the PSF file ../psf/mc1_separate/005/dcOpInfo.info ...

************************************************
Transient Analysis `tran': time = (0 s -> 40 ms)
************************************************

Opening the PSF file ../psf/mc1_separate/005/tran.tran.tran ...

Notice from spectre during IC analysis, during transient analysis `tran', during Monte Carlo analysis `mc1'.
    Bad pivoting is found during DC analysis. Option dc_pivot_check=yes is recommended for possible improvement of convergence.
Warning from spectre during check, during IC analysis, during transient analysis `tran', during Monte Carlo analysis `mc1'.
    WARNING (CMI-2943): Parameter checks have been ignored because the valid value for parameter 'trise' could not be found in 'C1'.
    WARNING (CMI-2943): Parameter checks have been ignored because the valid value for parameter 'trise' could not be found in 'I0.R2.CM'.
    WARNING (CMI-2943): Parameter checks have been ignored because the valid value for parameter 'trise' could not be found in 'I0.R2.CS1'.
    WARNING (CMI-2943): Parameter checks have been ignored because the valid value for parameter 'trise' could not be found in 'I0.R2.CS0'.
    WARNING (CMI-2943): Parameter checks have been ignored because the valid value for parameter 'trise' could not be found in 'I0.C8<3>.C1'.
        Further occurrences of this warning will be suppressed.

Convergence achieved in 19 iterations.
DC simulation time: CPU = 2.479 ms, elapsed = 2.47908 ms.
Important parameter values:
    start = 0 s
    outputstart = 0 s
    stop = 40 ms
    step = 40 us
    maxstep = 400 us
    ic = all
    useprevic = no
    skipdc = no
    reltol = 10e-06
    abstol(V) = 1 uV
    abstol(I) = 1 pA
    temp = 85 C
    tnom = 27 C
    tempeffects = all
    errpreset = conservative
    method = gear2only
    lteratio = 10
    relref = alllocal
    cmin = 0 F
    gmin = 1 pS
    rabsshort = 1 mOhm


Notice from spectre during transient analysis `tran', during Monte Carlo analysis `mc1'.
    Multithreading is disabled due to the size of the design being too small.


Output and IC/nodeset summary:
                 save   8       (current)
                 save   87      (voltage)

    tran: time = 1.018 ms    (2.54 %), step = 48.72 us     (122 m%)
    tran: time = 3.031 ms    (7.58 %), step = 47.61 us     (119 m%)
    tran: time = 5.045 ms    (12.6 %), step = 46.76 us     (117 m%)
    tran: time = 7.012 ms    (17.5 %), step = 49.23 us     (123 m%)
    tran: time = 9.026 ms    (22.6 %), step = 48.04 us     (120 m%)
    tran: time = 11.04 ms    (27.6 %), step = 47.09 us     (118 m%)
    tran: time = 13.01 ms    (32.5 %), step = 49.81 us     (125 m%)
    tran: time = 15.02 ms    (37.5 %), step = 48.52 us     (121 m%)
    tran: time = 17.03 ms    (42.6 %), step = 47.46 us     (119 m%)
    tran: time = 19 ms       (47.5 %), step = 50 us        (125 m%)
    tran: time = 21.01 ms    (52.5 %), step = 49.03 us     (123 m%)
    tran: time = 23.03 ms    (57.6 %), step = 47.86 us     (120 m%)
    tran: time = 25.04 ms    (62.6 %), step = 46.95 us     (117 m%)
    tran: time = 27.01 ms    (67.5 %), step = 49.57 us     (124 m%)
    tran: time = 29.02 ms    (72.6 %), step = 48.32 us     (121 m%)
    tran: time = 31.04 ms    (77.6 %), step = 47.3 us      (118 m%)
    tran: time = 33 ms       (82.5 %), step = 50 us        (125 m%)
    tran: time = 35.02 ms    (87.5 %), step = 48.81 us     (122 m%)
    tran: time = 37.03 ms    (92.6 %), step = 47.69 us     (119 m%)
    tran: time = 39.04 ms    (97.6 %), step = 46.82 us     (117 m%)
Number of accepted tran steps =             851

Maximum value achieved for any signal of each quantity: 
V: V(S<0>) = 3.3 V
I: I(V0:p) = 6.415 uA
Maximum value of each quantity, excluding Verilog-A modules or dangling current sources:
V: V(vout_filt) = 1.614 V
I: I(V0:p) = 6.415 uA

~~~~~~~~~~~~~~~~~~~~~~~~~~~~~~~~~
Post-Transient Simulation Summary
~~~~~~~~~~~~~~~~~~~~~~~~~~~~~~~~~
   -   To further speed up simulation, consider
          add ++aps on command line
   -   Non-default settings that could significantly slow down simulation
          errpreset = conservative, default moderate
          reltol = 10e-06, default 100e-06 (conservative)
~~~~~~~~~~~~~~~~~~~~~~~~~~~~~~~~~


During simulation, the CPU load for active processors is :
         0 (100.0 %)     1 (13.6 %)      2 (10.4 %)      3 (9.5 %)
         4 (26.4 %)      5 (8.9 %)       6 (3.3 %)       7 (5.9 %)
         8 (3.2 %)       9 (2.0 %)      10 (2.0 %)      11 (17.0 %)
        12 (27.1 %)     13 (6.8 %)      14 (1.8 %)      15 (3.5 %)
        16 (15.0 %)     17 (39.8 %)     18 (27.9 %)     19 (22.1 %)
        20 (32.8 %)     21 (94.8 %)     22 (46.2 %)     23 (5.8 %)
        24 (27.4 %)     25 (6.0 %)      26 (5.0 %)      27 (5.5 %)
        28 (4.0 %)      29 (5.7 %)      30 (12.2 %)     31 (100.0 %)
        32 (80.5 %)     33 (2.2 %)      34 (39.6 %)     35 (51.9 %)
        36 (21.5 %)     37 (95.8 %)     38 (69.0 %)     39 (23.0 %)
        40 (4.8 %)      41 (3.0 %)      42 (2.5 %)      43 (2.5 %)
        44 (5.8 %)      45 (100.0 %)    46 (2.0 %)      47 (2.3 %)
        Total: 1198.2%
Initial condition solution time: CPU = 2.512 ms, elapsed = 2.51198 ms.
Intrinsic tran analysis time:    CPU = 447.057 ms, elapsed = 448.509 ms.
Total time required for tran analysis `tran': CPU = 451.233 ms, elapsed = 453.375 ms, util. = 99.5%.
Time accumulated: CPU = 3.49229 s, elapsed = 4.115 s.
Peak resident memory used = 214 Mbytes.


Notice from spectre during transient analysis `tran', during Monte Carlo analysis `mc1'.
    34 warnings suppressed.

finalTimeOP: writing operating point information to rawfile.

Opening the PSF file ../psf/mc1_separate/005/finalTimeOP.info ...
modelParameter: writing model parameter values to rawfile.

Opening the PSF file ../psf/mc1_separate/005/modelParameter.info ...
element: writing instance parameter values to rawfile.

Opening the PSF file ../psf/mc1_separate/005/element.info ...
outputParameter: writing output parameter values to rawfile.

Opening the PSF file ../psf/mc1_separate/005/outputParameter.info ...
designParamVals: writing netlist parameters to rawfile.

Opening the PSFASCII file ../psf/mc1_separate/005/designParamVals.info ...
primitives: writing primitives to rawfile.

Opening the PSFASCII file ../psf/mc1_separate/005/primitives.info.primitives ...
subckts: writing subcircuits to rawfile.

Opening the PSFASCII file ../psf/mc1_separate/005/subckts.info.subckts ...
    mc1: iteration = 5           (8.16 %), step = 1            (2.04 %)
6  10.20% 

*****************************************************************************************
* 
* INFO: AMS_processOption = C35B4C3
* 
* INFO: Valid Modules  PIP VG5 HIRES
* 
*****************************************************************************************


******************
DC Analysis `dcOp'
******************

Opening the PSF file ../psf/mc1_separate/006/dcOp.dc ...
Important parameter values:
    reltol = 100e-06
    abstol(V) = 1 uV
    abstol(I) = 1 pA
    temp = 85 C
    tnom = 27 C
    tempeffects = all
    gmindc = 1 pS
    rabsshort = 1 mOhm

Notice from spectre during DC analysis `dcOp', during Monte Carlo analysis `mc1'.
    Bad pivoting is found during DC analysis. Option dc_pivot_check=yes is recommended for possible improvement of convergence.


Maximum value achieved for any signal of each quantity: 
V: V(S<0>) = 3.3 V
I: I(V0:p) = 6.437 uA
Maximum value of each quantity, excluding Verilog-A modules or dangling current sources:
V: V(net1) = 1.6 V
I: I(V0:p) = 6.437 uA

Warning from spectre during check, during DC analysis `dcOp', during Monte Carlo analysis `mc1'.
    WARNING (CMI-2943): Parameter checks have been ignored because the valid value for parameter 'trise' could not be found in 'C1'.
    WARNING (CMI-2943): Parameter checks have been ignored because the valid value for parameter 'trise' could not be found in 'I0.R2.CM'.
    WARNING (CMI-2943): Parameter checks have been ignored because the valid value for parameter 'trise' could not be found in 'I0.R2.CS1'.
    WARNING (CMI-2943): Parameter checks have been ignored because the valid value for parameter 'trise' could not be found in 'I0.R2.CS0'.
    WARNING (CMI-2943): Parameter checks have been ignored because the valid value for parameter 'trise' could not be found in 'I0.C8<3>.C1'.
        Further occurrences of this warning will be suppressed.

Convergence achieved in 19 iterations.
DC simulation time: CPU = 4.83 ms, elapsed = 6.44398 ms.
Total time required for dc analysis `dcOp': CPU = 5.222 ms, elapsed = 6.83498 ms, util. = 76.4%.
Time accumulated: CPU = 3.53078 s, elapsed = 4.16583 s.
Peak resident memory used = 214 Mbytes.


Notice from spectre during Monte Carlo analysis `mc1'.
    34 warnings suppressed.

dcOpInfo: writing operating point information to rawfile.

Opening the PSF file ../psf/mc1_separate/006/dcOpInfo.info ...

************************************************
Transient Analysis `tran': time = (0 s -> 40 ms)
************************************************

Opening the PSF file ../psf/mc1_separate/006/tran.tran.tran ...

Notice from spectre during IC analysis, during transient analysis `tran', during Monte Carlo analysis `mc1'.
    Bad pivoting is found during DC analysis. Option dc_pivot_check=yes is recommended for possible improvement of convergence.
Warning from spectre during check, during IC analysis, during transient analysis `tran', during Monte Carlo analysis `mc1'.
    WARNING (CMI-2943): Parameter checks have been ignored because the valid value for parameter 'trise' could not be found in 'C1'.
    WARNING (CMI-2943): Parameter checks have been ignored because the valid value for parameter 'trise' could not be found in 'I0.R2.CM'.
    WARNING (CMI-2943): Parameter checks have been ignored because the valid value for parameter 'trise' could not be found in 'I0.R2.CS1'.
    WARNING (CMI-2943): Parameter checks have been ignored because the valid value for parameter 'trise' could not be found in 'I0.R2.CS0'.
    WARNING (CMI-2943): Parameter checks have been ignored because the valid value for parameter 'trise' could not be found in 'I0.C8<3>.C1'.
        Further occurrences of this warning will be suppressed.

Convergence achieved in 19 iterations.
DC simulation time: CPU = 2.474 ms, elapsed = 2.47598 ms.
Important parameter values:
    start = 0 s
    outputstart = 0 s
    stop = 40 ms
    step = 40 us
    maxstep = 400 us
    ic = all
    useprevic = no
    skipdc = no
    reltol = 10e-06
    abstol(V) = 1 uV
    abstol(I) = 1 pA
    temp = 85 C
    tnom = 27 C
    tempeffects = all
    errpreset = conservative
    method = gear2only
    lteratio = 10
    relref = alllocal
    cmin = 0 F
    gmin = 1 pS
    rabsshort = 1 mOhm


Notice from spectre during transient analysis `tran', during Monte Carlo analysis `mc1'.
    Multithreading is disabled due to the size of the design being too small.


Output and IC/nodeset summary:
                 save   8       (current)
                 save   87      (voltage)

    tran: time = 1.018 ms    (2.54 %), step = 48.69 us     (122 m%)
    tran: time = 3.031 ms    (7.58 %), step = 47.61 us     (119 m%)
    tran: time = 5.044 ms    (12.6 %), step = 46.77 us     (117 m%)
    tran: time = 7.011 ms    (17.5 %), step = 49.28 us     (123 m%)
    tran: time = 9.024 ms    (22.6 %), step = 48.11 us     (120 m%)
    tran: time = 11.04 ms    (27.6 %), step = 47.15 us     (118 m%)
    tran: time = 13 ms       (32.5 %), step = 49.95 us     (125 m%)
    tran: time = 15.02 ms    (37.5 %), step = 48.66 us     (122 m%)
    tran: time = 17.03 ms    (42.6 %), step = 47.58 us     (119 m%)
    tran: time = 19.04 ms    (47.6 %), step = 46.75 us     (117 m%)
    tran: time = 21.01 ms    (52.5 %), step = 49.25 us     (123 m%)
    tran: time = 23.02 ms    (57.6 %), step = 48.08 us     (120 m%)
    tran: time = 25.04 ms    (62.6 %), step = 47.13 us     (118 m%)
    tran: time = 27.01 ms    (67.5 %), step = 49.91 us     (125 m%)
    tran: time = 29.02 ms    (72.5 %), step = 48.63 us     (122 m%)
    tran: time = 31.03 ms    (77.6 %), step = 47.56 us     (119 m%)
    tran: time = 33.05 ms    (82.6 %), step = 46.73 us     (117 m%)
    tran: time = 35.01 ms    (87.5 %), step = 49.22 us     (123 m%)
    tran: time = 37.03 ms    (92.6 %), step = 48.06 us     (120 m%)
    tran: time = 39.04 ms    (97.6 %), step = 47.11 us     (118 m%)
Number of accepted tran steps =             852

Maximum value achieved for any signal of each quantity: 
V: V(S<0>) = 3.3 V
I: I(V0:p) = 6.437 uA
Maximum value of each quantity, excluding Verilog-A modules or dangling current sources:
V: V(vout_filt) = 1.612 V
I: I(V0:p) = 6.437 uA

~~~~~~~~~~~~~~~~~~~~~~~~~~~~~~~~~
Post-Transient Simulation Summary
~~~~~~~~~~~~~~~~~~~~~~~~~~~~~~~~~
   -   To further speed up simulation, consider
          add ++aps on command line
   -   Non-default settings that could significantly slow down simulation
          errpreset = conservative, default moderate
          reltol = 10e-06, default 100e-06 (conservative)
~~~~~~~~~~~~~~~~~~~~~~~~~~~~~~~~~


During simulation, the CPU load for active processors is :
         0 (100.0 %)     1 (14.9 %)      2 (9.3 %)       3 (8.6 %)
         4 (26.0 %)      5 (19.1 %)      6 (3.3 %)       7 (5.5 %)
         8 (3.5 %)       9 (1.8 %)      10 (1.8 %)      11 (15.7 %)
        12 (24.2 %)     13 (17.6 %)     14 (1.8 %)      15 (4.9 %)
        16 (13.6 %)     17 (35.5 %)     18 (24.9 %)     19 (19.6 %)
        20 (39.5 %)     21 (95.4 %)     22 (50.3 %)     23 (6.9 %)
        24 (24.6 %)     25 (5.9 %)      26 (4.7 %)      27 (16.4 %)
        28 (3.8 %)      29 (5.8 %)      30 (10.9 %)     31 (100.0 %)
        32 (82.3 %)     33 (2.0 %)      34 (35.5 %)     35 (46.1 %)
        36 (19.4 %)     37 (96.3 %)     38 (61.7 %)     39 (29.0 %)
        40 (6.3 %)      41 (2.7 %)      42 (2.2 %)      43 (3.4 %)
        44 (6.2 %)      45 (100.0 %)    46 (2.0 %)      47 (2.4 %)
        Total: 1213.6%
Initial condition solution time: CPU = 2.503 ms, elapsed = 2.50411 ms.
Intrinsic tran analysis time:    CPU = 446.396 ms, elapsed = 447.82 ms.
Total time required for tran analysis `tran': CPU = 450.437 ms, elapsed = 452.493 ms, util. = 99.5%.
Time accumulated: CPU = 3.98746 s, elapsed = 4.62706 s.
Peak resident memory used = 214 Mbytes.


Notice from spectre during transient analysis `tran', during Monte Carlo analysis `mc1'.
    34 warnings suppressed.

finalTimeOP: writing operating point information to rawfile.

Opening the PSF file ../psf/mc1_separate/006/finalTimeOP.info ...
modelParameter: writing model parameter values to rawfile.

Opening the PSF file ../psf/mc1_separate/006/modelParameter.info ...
element: writing instance parameter values to rawfile.

Opening the PSF file ../psf/mc1_separate/006/element.info ...
outputParameter: writing output parameter values to rawfile.

Opening the PSF file ../psf/mc1_separate/006/outputParameter.info ...
designParamVals: writing netlist parameters to rawfile.

Opening the PSFASCII file ../psf/mc1_separate/006/designParamVals.info ...
primitives: writing primitives to rawfile.

Opening the PSFASCII file ../psf/mc1_separate/006/primitives.info.primitives ...
subckts: writing subcircuits to rawfile.

Opening the PSFASCII file ../psf/mc1_separate/006/subckts.info.subckts ...
    mc1: iteration = 6           (10.2 %), step = 1            (2.04 %)
7  12.24% 

*****************************************************************************************
* 
* INFO: AMS_processOption = C35B4C3
* 
* INFO: Valid Modules  PIP VG5 HIRES
* 
*****************************************************************************************


******************
DC Analysis `dcOp'
******************

Opening the PSF file ../psf/mc1_separate/007/dcOp.dc ...
Important parameter values:
    reltol = 100e-06
    abstol(V) = 1 uV
    abstol(I) = 1 pA
    temp = 85 C
    tnom = 27 C
    tempeffects = all
    gmindc = 1 pS
    rabsshort = 1 mOhm

Notice from spectre during DC analysis `dcOp', during Monte Carlo analysis `mc1'.
    Bad pivoting is found during DC analysis. Option dc_pivot_check=yes is recommended for possible improvement of convergence.


Maximum value achieved for any signal of each quantity: 
V: V(S<0>) = 3.3 V
I: I(V0:p) = 6.593 uA
Maximum value of each quantity, excluding Verilog-A modules or dangling current sources:
V: V(vout_filt) = 1.601 V
I: I(V0:p) = 6.593 uA

Warning from spectre during check, during DC analysis `dcOp', during Monte Carlo analysis `mc1'.
    WARNING (CMI-2943): Parameter checks have been ignored because the valid value for parameter 'trise' could not be found in 'C1'.
    WARNING (CMI-2943): Parameter checks have been ignored because the valid value for parameter 'trise' could not be found in 'I0.R2.CM'.
    WARNING (CMI-2943): Parameter checks have been ignored because the valid value for parameter 'trise' could not be found in 'I0.R2.CS1'.
    WARNING (CMI-2943): Parameter checks have been ignored because the valid value for parameter 'trise' could not be found in 'I0.R2.CS0'.
    WARNING (CMI-2943): Parameter checks have been ignored because the valid value for parameter 'trise' could not be found in 'I0.C8<3>.C1'.
        Further occurrences of this warning will be suppressed.

Convergence achieved in 19 iterations.
DC simulation time: CPU = 4.915 ms, elapsed = 6.29902 ms.
Total time required for dc analysis `dcOp': CPU = 5.429 ms, elapsed = 6.81305 ms, util. = 79.7%.
Time accumulated: CPU = 4.02665 s, elapsed = 4.67852 s.
Peak resident memory used = 214 Mbytes.


Notice from spectre during Monte Carlo analysis `mc1'.
    34 warnings suppressed.

dcOpInfo: writing operating point information to rawfile.

Opening the PSF file ../psf/mc1_separate/007/dcOpInfo.info ...

************************************************
Transient Analysis `tran': time = (0 s -> 40 ms)
************************************************

Opening the PSF file ../psf/mc1_separate/007/tran.tran.tran ...

Notice from spectre during IC analysis, during transient analysis `tran', during Monte Carlo analysis `mc1'.
    Bad pivoting is found during DC analysis. Option dc_pivot_check=yes is recommended for possible improvement of convergence.
Warning from spectre during check, during IC analysis, during transient analysis `tran', during Monte Carlo analysis `mc1'.
    WARNING (CMI-2943): Parameter checks have been ignored because the valid value for parameter 'trise' could not be found in 'C1'.
    WARNING (CMI-2943): Parameter checks have been ignored because the valid value for parameter 'trise' could not be found in 'I0.R2.CM'.
    WARNING (CMI-2943): Parameter checks have been ignored because the valid value for parameter 'trise' could not be found in 'I0.R2.CS1'.
    WARNING (CMI-2943): Parameter checks have been ignored because the valid value for parameter 'trise' could not be found in 'I0.R2.CS0'.
    WARNING (CMI-2943): Parameter checks have been ignored because the valid value for parameter 'trise' could not be found in 'I0.C8<3>.C1'.
        Further occurrences of this warning will be suppressed.

Convergence achieved in 19 iterations.
DC simulation time: CPU = 2.498 ms, elapsed = 2.4991 ms.
Important parameter values:
    start = 0 s
    outputstart = 0 s
    stop = 40 ms
    step = 40 us
    maxstep = 400 us
    ic = all
    useprevic = no
    skipdc = no
    reltol = 10e-06
    abstol(V) = 1 uV
    abstol(I) = 1 pA
    temp = 85 C
    tnom = 27 C
    tempeffects = all
    errpreset = conservative
    method = gear2only
    lteratio = 10
    relref = alllocal
    cmin = 0 F
    gmin = 1 pS
    rabsshort = 1 mOhm


Notice from spectre during transient analysis `tran', during Monte Carlo analysis `mc1'.
    Multithreading is disabled due to the size of the design being too small.


Output and IC/nodeset summary:
                 save   8       (current)
                 save   87      (voltage)

    tran: time = 1.018 ms    (2.55 %), step = 48.66 us     (122 m%)
    tran: time = 3.032 ms    (7.58 %), step = 47.56 us     (119 m%)
    tran: time = 5.046 ms    (12.6 %), step = 46.71 us     (117 m%)
    tran: time = 7.013 ms    (17.5 %), step = 49.15 us     (123 m%)
    tran: time = 9.026 ms    (22.6 %), step = 47.97 us     (120 m%)
    tran: time = 11.04 ms    (27.6 %), step = 47.03 us     (118 m%)
    tran: time = 13.01 ms    (32.5 %), step = 49.69 us     (124 m%)
    tran: time = 15.02 ms    (37.6 %), step = 48.41 us     (121 m%)
    tran: time = 17.03 ms    (42.6 %), step = 47.37 us     (118 m%)
    tran: time = 19 ms       (47.5 %), step = 50 us        (125 m%)
    tran: time = 21.02 ms    (52.5 %), step = 48.88 us     (122 m%)
    tran: time = 23.03 ms    (57.6 %), step = 47.74 us     (119 m%)
    tran: time = 25.04 ms    (62.6 %), step = 46.85 us     (117 m%)
    tran: time = 27.01 ms    (67.5 %), step = 49.38 us     (123 m%)
    tran: time = 29.02 ms    (72.6 %), step = 48.17 us     (120 m%)
    tran: time = 31.04 ms    (77.6 %), step = 47.17 us     (118 m%)
    tran: time = 33.01 ms    (82.5 %), step = 49.94 us     (125 m%)
    tran: time = 35.02 ms    (87.5 %), step = 48.62 us     (122 m%)
    tran: time = 37.03 ms    (92.6 %), step = 47.53 us     (119 m%)
    tran: time = 39.05 ms    (97.6 %), step = 46.69 us     (117 m%)
Number of accepted tran steps =             851

Maximum value achieved for any signal of each quantity: 
[...]
        Total: 1352.1%
Initial condition solution time: CPU = 2.468 ms, elapsed = 2.47002 ms.
Intrinsic tran analysis time:    CPU = 445.565 ms, elapsed = 446.735 ms.
Total time required for tran analysis `tran': CPU = 449.621 ms, elapsed = 451.372 ms, util. = 99.6%.
Time accumulated: CPU = 25.0029 s, elapsed = 26.354 s.
Peak resident memory used = 215 Mbytes.


Notice from spectre during transient analysis `tran', during Monte Carlo analysis `mc1'.
    34 warnings suppressed.

finalTimeOP: writing operating point information to rawfile.

Opening the PSF file ../psf/mc1_separate/048/finalTimeOP.info ...
modelParameter: writing model parameter values to rawfile.

Opening the PSF file ../psf/mc1_separate/048/modelParameter.info ...
element: writing instance parameter values to rawfile.

Opening the PSF file ../psf/mc1_separate/048/element.info ...
outputParameter: writing output parameter values to rawfile.

Opening the PSF file ../psf/mc1_separate/048/outputParameter.info ...
designParamVals: writing netlist parameters to rawfile.

Opening the PSFASCII file ../psf/mc1_separate/048/designParamVals.info ...
primitives: writing primitives to rawfile.

Opening the PSFASCII file ../psf/mc1_separate/048/primitives.info.primitives ...
subckts: writing subcircuits to rawfile.

Opening the PSFASCII file ../psf/mc1_separate/048/subckts.info.subckts ...
    mc1: iteration = 48          (95.9 %), step = 1            (2.04 %)
49  97.96% 

*****************************************************************************************
* 
* INFO: AMS_processOption = C35B4C3
* 
* INFO: Valid Modules  PIP VG5 HIRES
* 
*****************************************************************************************


******************
DC Analysis `dcOp'
******************

Opening the PSF file ../psf/mc1_separate/049/dcOp.dc ...
Important parameter values:
    reltol = 100e-06
    abstol(V) = 1 uV
    abstol(I) = 1 pA
    temp = 85 C
    tnom = 27 C
    tempeffects = all
    gmindc = 1 pS
    rabsshort = 1 mOhm

Notice from spectre during DC analysis `dcOp', during Monte Carlo analysis `mc1'.
    Bad pivoting is found during DC analysis. Option dc_pivot_check=yes is recommended for possible improvement of convergence.


Maximum value achieved for any signal of each quantity: 
V: V(S<0>) = 3.3 V
I: I(V0:p) = 6.472 uA
Maximum value of each quantity, excluding Verilog-A modules or dangling current sources:
V: V(vout_filt) = 1.6 V
I: I(V0:p) = 6.472 uA

Warning from spectre during check, during DC analysis `dcOp', during Monte Carlo analysis `mc1'.
    WARNING (CMI-2943): Parameter checks have been ignored because the valid value for parameter 'trise' could not be found in 'C1'.
    WARNING (CMI-2943): Parameter checks have been ignored because the valid value for parameter 'trise' could not be found in 'I0.R2.CM'.
    WARNING (CMI-2943): Parameter checks have been ignored because the valid value for parameter 'trise' could not be found in 'I0.R2.CS1'.
    WARNING (CMI-2943): Parameter checks have been ignored because the valid value for parameter 'trise' could not be found in 'I0.R2.CS0'.
    WARNING (CMI-2943): Parameter checks have been ignored because the valid value for parameter 'trise' could not be found in 'I0.C8<3>.C1'.
        Further occurrences of this warning will be suppressed.

Convergence achieved in 19 iterations.
DC simulation time: CPU = 4.817 ms, elapsed = 6.02794 ms.
Total time required for dc analysis `dcOp': CPU = 5.227 ms, elapsed = 6.43682 ms, util. = 81.2%.
Time accumulated: CPU = 25.042 s, elapsed = 26.4045 s.
Peak resident memory used = 215 Mbytes.


Notice from spectre during Monte Carlo analysis `mc1'.
    34 warnings suppressed.

dcOpInfo: writing operating point information to rawfile.

Opening the PSF file ../psf/mc1_separate/049/dcOpInfo.info ...

************************************************
Transient Analysis `tran': time = (0 s -> 40 ms)
************************************************

Opening the PSF file ../psf/mc1_separate/049/tran.tran.tran ...

Notice from spectre during IC analysis, during transient analysis `tran', during Monte Carlo analysis `mc1'.
    Bad pivoting is found during DC analysis. Option dc_pivot_check=yes is recommended for possible improvement of convergence.
Warning from spectre during check, during IC analysis, during transient analysis `tran', during Monte Carlo analysis `mc1'.
    WARNING (CMI-2943): Parameter checks have been ignored because the valid value for parameter 'trise' could not be found in 'C1'.
    WARNING (CMI-2943): Parameter checks have been ignored because the valid value for parameter 'trise' could not be found in 'I0.R2.CM'.
    WARNING (CMI-2943): Parameter checks have been ignored because the valid value for parameter 'trise' could not be found in 'I0.R2.CS1'.
    WARNING (CMI-2943): Parameter checks have been ignored because the valid value for parameter 'trise' could not be found in 'I0.R2.CS0'.
    WARNING (CMI-2943): Parameter checks have been ignored because the valid value for parameter 'trise' could not be found in 'I0.C8<3>.C1'.
        Further occurrences of this warning will be suppressed.

Convergence achieved in 19 iterations.
DC simulation time: CPU = 2.504 ms, elapsed = 2.50387 ms.
Important parameter values:
    start = 0 s
    outputstart = 0 s
    stop = 40 ms
    step = 40 us
    maxstep = 400 us
    ic = all
    useprevic = no
    skipdc = no
    reltol = 10e-06
    abstol(V) = 1 uV
    abstol(I) = 1 pA
    temp = 85 C
    tnom = 27 C
    tempeffects = all
    errpreset = conservative
    method = gear2only
    lteratio = 10
    relref = alllocal
    cmin = 0 F
    gmin = 1 pS
    rabsshort = 1 mOhm


Notice from spectre during transient analysis `tran', during Monte Carlo analysis `mc1'.
    Multithreading is disabled due to the size of the design being too small.


Output and IC/nodeset summary:
                 save   8       (current)
                 save   87      (voltage)

    tran: time = 1.018 ms    (2.54 %), step = 48.69 us     (122 m%)
    tran: time = 3.031 ms    (7.58 %), step = 47.59 us     (119 m%)
    tran: time = 5.045 ms    (12.6 %), step = 46.75 us     (117 m%)
    tran: time = 7.012 ms    (17.5 %), step = 49.23 us     (123 m%)
    tran: time = 9.025 ms    (22.6 %), step = 48.05 us     (120 m%)
    tran: time = 11.04 ms    (27.6 %), step = 47.1 us      (118 m%)
    tran: time = 13.01 ms    (32.5 %), step = 49.83 us     (125 m%)
    tran: time = 15.02 ms    (37.5 %), step = 48.55 us     (121 m%)
    tran: time = 17.03 ms    (42.6 %), step = 47.48 us     (119 m%)
    tran: time = 19.05 ms    (47.6 %), step = 46.66 us     (117 m%)
    tran: time = 21.01 ms    (52.5 %), step = 49.08 us     (123 m%)
    tran: time = 23.03 ms    (57.6 %), step = 47.92 us     (120 m%)
    tran: time = 25.04 ms    (62.6 %), step = 47 us        (117 m%)
    tran: time = 27.01 ms    (67.5 %), step = 49.66 us     (124 m%)
    tran: time = 29.02 ms    (72.6 %), step = 48.41 us     (121 m%)
    tran: time = 31.03 ms    (77.6 %), step = 47.37 us     (118 m%)
    tran: time = 33 ms       (82.5 %), step = 50 us        (125 m%)
    tran: time = 35.02 ms    (87.5 %), step = 48.93 us     (122 m%)
    tran: time = 37.03 ms    (92.6 %), step = 47.78 us     (119 m%)
    tran: time = 39.04 ms    (97.6 %), step = 46.9 us      (117 m%)
Number of accepted tran steps =             851

Maximum value achieved for any signal of each quantity: 
V: V(S<0>) = 3.3 V
I: I(V0:p) = 6.472 uA
Maximum value of each quantity, excluding Verilog-A modules or dangling current sources:
V: V(vout_filt) = 1.614 V
I: I(V0:p) = 6.472 uA

~~~~~~~~~~~~~~~~~~~~~~~~~~~~~~~~~
Post-Transient Simulation Summary
~~~~~~~~~~~~~~~~~~~~~~~~~~~~~~~~~
   -   To further speed up simulation, consider
          add ++aps on command line
   -   Non-default settings that could significantly slow down simulation
          errpreset = conservative, default moderate
          reltol = 10e-06, default 100e-06 (conservative)
~~~~~~~~~~~~~~~~~~~~~~~~~~~~~~~~~


During simulation, the CPU load for active processors is :
         0 (61.7 %)      1 (26.4 %)      2 (9.2 %)       3 (14.1 %)
         4 (20.9 %)      5 (57.3 %)      6 (20.6 %)      7 (13.5 %)
         8 (26.8 %)      9 (7.5 %)      10 (41.0 %)     11 (12.4 %)
        12 (33.3 %)     13 (20.6 %)     14 (49.8 %)     15 (21.8 %)
        16 (29.4 %)     17 (11.9 %)     18 (14.7 %)     19 (21.6 %)
        20 (17.8 %)     21 (48.4 %)     22 (38.9 %)     23 (16.5 %)
        24 (28.8 %)     25 (12.0 %)     26 (29.4 %)     27 (21.0 %)
        28 (27.1 %)     29 (26.6 %)     30 (19.9 %)     31 (91.1 %)
        32 (30.6 %)     33 (29.3 %)     34 (33.9 %)     35 (23.9 %)
        36 (32.4 %)     37 (27.0 %)     38 (33.5 %)     39 (40.7 %)
        40 (20.4 %)     41 (19.8 %)     42 (3.6 %)      43 (17.8 %)
        44 (20.4 %)     45 (100.0 %)    46 (17.1 %)     47 (7.8 %)
        Total: 1350.0%
Initial condition solution time: CPU = 2.534 ms, elapsed = 2.53582 ms.
Intrinsic tran analysis time:    CPU = 441.49 ms, elapsed = 442.779 ms.
Total time required for tran analysis `tran': CPU = 445.732 ms, elapsed = 447.975 ms, util. = 99.5%.
Time accumulated: CPU = 25.4938 s, elapsed = 26.8608 s.
Peak resident memory used = 215 Mbytes.


Notice from spectre during transient analysis `tran', during Monte Carlo analysis `mc1'.
    34 warnings suppressed.

finalTimeOP: writing operating point information to rawfile.

Opening the PSF file ../psf/mc1_separate/049/finalTimeOP.info ...
modelParameter: writing model parameter values to rawfile.

Opening the PSF file ../psf/mc1_separate/049/modelParameter.info ...
element: writing instance parameter values to rawfile.

Opening the PSF file ../psf/mc1_separate/049/element.info ...
outputParameter: writing output parameter values to rawfile.

Opening the PSF file ../psf/mc1_separate/049/outputParameter.info ...
designParamVals: writing netlist parameters to rawfile.

Opening the PSFASCII file ../psf/mc1_separate/049/designParamVals.info ...
primitives: writing primitives to rawfile.

Opening the PSFASCII file ../psf/mc1_separate/049/primitives.info.primitives ...
subckts: writing subcircuits to rawfile.

Opening the PSFASCII file ../psf/mc1_separate/049/subckts.info.subckts ...
    mc1: iteration = 49            (98 %), step = 1            (2.04 %)
50 100.00% 

*****************************************************************************************
* 
* INFO: AMS_processOption = C35B4C3
* 
* INFO: Valid Modules  PIP VG5 HIRES
* 
*****************************************************************************************


******************
DC Analysis `dcOp'
******************

Opening the PSF file ../psf/mc1_separate/050/dcOp.dc ...
Important parameter values:
    reltol = 100e-06
    abstol(V) = 1 uV
    abstol(I) = 1 pA
    temp = 85 C
    tnom = 27 C
    tempeffects = all
    gmindc = 1 pS
    rabsshort = 1 mOhm

Notice from spectre during DC analysis `dcOp', during Monte Carlo analysis `mc1'.
    Bad pivoting is found during DC analysis. Option dc_pivot_check=yes is recommended for possible improvement of convergence.


Maximum value achieved for any signal of each quantity: 
V: V(S<0>) = 3.3 V
I: I(V0:p) = 6.414 uA
Maximum value of each quantity, excluding Verilog-A modules or dangling current sources:
V: V(vout_filt) = 1.601 V
I: I(V0:p) = 6.414 uA

Warning from spectre during check, during DC analysis `dcOp', during Monte Carlo analysis `mc1'.
    WARNING (CMI-2943): Parameter checks have been ignored because the valid value for parameter 'trise' could not be found in 'C1'.
    WARNING (CMI-2943): Parameter checks have been ignored because the valid value for parameter 'trise' could not be found in 'I0.R2.CM'.
    WARNING (CMI-2943): Parameter checks have been ignored because the valid value for parameter 'trise' could not be found in 'I0.R2.CS1'.
    WARNING (CMI-2943): Parameter checks have been ignored because the valid value for parameter 'trise' could not be found in 'I0.R2.CS0'.
    WARNING (CMI-2943): Parameter checks have been ignored because the valid value for parameter 'trise' could not be found in 'I0.C8<3>.C1'.
        Further occurrences of this warning will be suppressed.

Convergence achieved in 19 iterations.
DC simulation time: CPU = 4.987 ms, elapsed = 6.52409 ms.
Total time required for dc analysis `dcOp': CPU = 5.442 ms, elapsed = 6.97899 ms, util. = 78%.
Time accumulated: CPU = 25.5326 s, elapsed = 26.9117 s.
Peak resident memory used = 215 Mbytes.


Notice from spectre during Monte Carlo analysis `mc1'.
    34 warnings suppressed.

dcOpInfo: writing operating point information to rawfile.

Opening the PSF file ../psf/mc1_separate/050/dcOpInfo.info ...

************************************************
Transient Analysis `tran': time = (0 s -> 40 ms)
************************************************

Opening the PSF file ../psf/mc1_separate/050/tran.tran.tran ...

Notice from spectre during IC analysis, during transient analysis `tran', during Monte Carlo analysis `mc1'.
    Bad pivoting is found during DC analysis. Option dc_pivot_check=yes is recommended for possible improvement of convergence.
Warning from spectre during check, during IC analysis, during transient analysis `tran', during Monte Carlo analysis `mc1'.
    WARNING (CMI-2943): Parameter checks have been ignored because the valid value for parameter 'trise' could not be found in 'C1'.
    WARNING (CMI-2943): Parameter checks have been ignored because the valid value for parameter 'trise' could not be found in 'I0.R2.CM'.
    WARNING (CMI-2943): Parameter checks have been ignored because the valid value for parameter 'trise' could not be found in 'I0.R2.CS1'.
    WARNING (CMI-2943): Parameter checks have been ignored because the valid value for parameter 'trise' could not be found in 'I0.R2.CS0'.
    WARNING (CMI-2943): Parameter checks have been ignored because the valid value for parameter 'trise' could not be found in 'I0.C8<3>.C1'.
        Further occurrences of this warning will be suppressed.

Convergence achieved in 19 iterations.
DC simulation time: CPU = 2.44 ms, elapsed = 2.43998 ms.
Important parameter values:
    start = 0 s
    outputstart = 0 s
    stop = 40 ms
    step = 40 us
    maxstep = 400 us
    ic = all
    useprevic = no
    skipdc = no
    reltol = 10e-06
    abstol(V) = 1 uV
    abstol(I) = 1 pA
    temp = 85 C
    tnom = 27 C
    tempeffects = all
    errpreset = conservative
    method = gear2only
    lteratio = 10
    relref = alllocal
    cmin = 0 F
    gmin = 1 pS
    rabsshort = 1 mOhm


Notice from spectre during transient analysis `tran', during Monte Carlo analysis `mc1'.
    Multithreading is disabled due to the size of the design being too small.


Output and IC/nodeset summary:
                 save   8       (current)
                 save   87      (voltage)

    tran: time = 1.017 ms    (2.54 %), step = 48.76 us     (122 m%)
    tran: time = 3.031 ms    (7.58 %), step = 47.64 us     (119 m%)
    tran: time = 5.044 ms    (12.6 %), step = 46.77 us     (117 m%)
    tran: time = 7.012 ms    (17.5 %), step = 49.25 us     (123 m%)
    tran: time = 9.025 ms    (22.6 %), step = 48.06 us     (120 m%)
    tran: time = 11.04 ms    (27.6 %), step = 47.1 us      (118 m%)
    tran: time = 13.01 ms    (32.5 %), step = 49.81 us     (125 m%)
    tran: time = 15.02 ms    (37.5 %), step = 48.52 us     (121 m%)
    tran: time = 17.03 ms    (42.6 %), step = 47.45 us     (119 m%)
    tran: time = 19 ms       (47.5 %), step = 50 us        (125 m%)
    tran: time = 21.01 ms    (52.5 %), step = 49 us        (123 m%)
    tran: time = 23.03 ms    (57.6 %), step = 47.84 us     (120 m%)
    tran: time = 25.04 ms    (62.6 %), step = 46.93 us     (117 m%)
    tran: time = 27.01 ms    (67.5 %), step = 49.52 us     (124 m%)
    tran: time = 29.02 ms    (72.6 %), step = 48.28 us     (121 m%)
    tran: time = 31.04 ms    (77.6 %), step = 47.26 us     (118 m%)
    tran: time = 33 ms       (82.5 %), step = 50 us        (125 m%)
    tran: time = 35.02 ms    (87.5 %), step = 48.75 us     (122 m%)
    tran: time = 37.03 ms    (92.6 %), step = 47.63 us     (119 m%)
    tran: time = 39.04 ms    (97.6 %), step = 46.77 us     (117 m%)
Number of accepted tran steps =             851

Maximum value achieved for any signal of each quantity: 
V: V(S<0>) = 3.3 V
I: I(V0:p) = 6.415 uA
Maximum value of each quantity, excluding Verilog-A modules or dangling current sources:
V: V(vout_filt) = 1.614 V
I: I(V0:p) = 6.415 uA

~~~~~~~~~~~~~~~~~~~~~~~~~~~~~~~~~
Post-Transient Simulation Summary
~~~~~~~~~~~~~~~~~~~~~~~~~~~~~~~~~
   -   To further speed up simulation, consider
          add ++aps on command line
   -   Non-default settings that could significantly slow down simulation
          errpreset = conservative, default moderate
          reltol = 10e-06, default 100e-06 (conservative)
~~~~~~~~~~~~~~~~~~~~~~~~~~~~~~~~~


During simulation, the CPU load for active processors is :
         0 (60.6 %)      1 (26.0 %)      2 (9.1 %)       3 (13.9 %)
         4 (20.6 %)      5 (56.4 %)      6 (20.3 %)      7 (14.9 %)
         8 (28.2 %)      9 (7.7 %)      10 (42.1 %)     11 (12.5 %)
        12 (32.9 %)     13 (22.1 %)     14 (49.0 %)     15 (23.3 %)
        16 (28.8 %)     17 (11.7 %)     18 (14.4 %)     19 (21.5 %)
        20 (17.6 %)     21 (47.5 %)     22 (38.2 %)     23 (16.2 %)
        24 (28.3 %)     25 (11.9 %)     26 (28.9 %)     27 (20.7 %)
        28 (28.3 %)     29 (26.2 %)     30 (19.5 %)     31 (89.5 %)
        32 (30.0 %)     33 (30.6 %)     34 (35.0 %)     35 (23.6 %)
        36 (32.2 %)     37 (26.8 %)     38 (32.9 %)     39 (41.7 %)
        40 (20.0 %)     41 (19.5 %)     42 (3.5 %)      43 (17.4 %)
        44 (20.0 %)     45 (100.0 %)    46 (16.8 %)     47 (7.8 %)
        Total: 1347.0%
Initial condition solution time: CPU = 2.474 ms, elapsed = 2.47598 ms.
Intrinsic tran analysis time:    CPU = 442.903 ms, elapsed = 444.865 ms.
Total time required for tran analysis `tran': CPU = 447.03 ms, elapsed = 449.66 ms, util. = 99.4%.
Time accumulated: CPU = 25.9858 s, elapsed = 27.37 s.
Peak resident memory used = 215 Mbytes.


Notice from spectre during transient analysis `tran', during Monte Carlo analysis `mc1'.
    34 warnings suppressed.

finalTimeOP: writing operating point information to rawfile.

Opening the PSF file ../psf/mc1_separate/050/finalTimeOP.info ...
modelParameter: writing model parameter values to rawfile.

Opening the PSF file ../psf/mc1_separate/050/modelParameter.info ...
element: writing instance parameter values to rawfile.

Opening the PSF file ../psf/mc1_separate/050/element.info ...
outputParameter: writing output parameter values to rawfile.

Opening the PSF file ../psf/mc1_separate/050/outputParameter.info ...
designParamVals: writing netlist parameters to rawfile.

Opening the PSFASCII file ../psf/mc1_separate/050/designParamVals.info ...
primitives: writing primitives to rawfile.

Opening the PSFASCII file ../psf/mc1_separate/050/primitives.info.primitives ...
subckts: writing subcircuits to rawfile.

Opening the PSFASCII file ../psf/mc1_separate/050/subckts.info.subckts ...
    mc1: iteration = 50           (100 %), step = 1            (2.04 %)
Total time required for montecarlo analysis `mc1': CPU = 25.5997 s, elapsed = 26.4781 s, util. = 96.7%.
Time accumulated: CPU = 26.0101 s, elapsed = 27.4081 s.
Peak resident memory used = 215 Mbytes.

Licensing Information:
Lic Summary:
[09:11:55.101928] Cdslmd servers:3000@lic08.ug.kth.se:29000@lic06.ug.kth.se
[09:11:55.626256] Feature usage summary:
[09:11:55.626258] Virtuoso_Multi_mode_Simulation


Aggregate audit (9:11:55 AM, Thur Apr 16, 2026):
Time used: CPU = 26 s, elapsed = 27.4 s, util. = 94.9%.
Time spent in licensing: elapsed = 48.5 ms.
Peak memory used = 215 Mbytes.
Simulation started at: 9:11:28 AM, Thur Apr 16, 2026, ended at: 9:11:55 AM, Thur Apr 16, 2026, with elapsed time (wall clock): 27.4 s.
spectre completes with 0 errors, 527 warnings, and 262 notices.
