
Spectre (R) Circuit Simulator
Version 24.1.0.288.isr5 64bit -- 3 Apr 2025
Copyright (C) 1989-2025 Cadence Design Systems, Inc. All rights reserved worldwide. Cadence and Spectre are registered trademarks of Cadence Design Systems, Inc. All others are the property of their respective holders.

Includes RSA BSAFE(R) Cryptographic or Security Protocol Software from RSA Security, Inc.

User: davidevi   Host: il2244vt26_davidevi   HostID: 11AC2C00   PID: 1047967
Memory  available: 3.0449 TB  physical: 3.2467 TB
Linux   : Rocky Linux release 8.10 (Green Obsidian)
CPU Type: Intel(R) Xeon(R) CPU E7-8857 v2 @ 3.00GHz
        Socket: Processors [Frequency]
        0:       0 [2999.9],  1 [3600.0],  2 [2557.3],  3 [1900.0],  4 [1200.0]
                 5 [1200.0],  6 [2999.9],  7 [2700.0],  8 [1200.0],  9 [1200.0]
                10 [1200.0], 11 [1200.0]
        1:      12 [1500.0], 13 [2999.9], 14 [2999.9], 15 [1200.0], 16 [3000.0]
                17 [2999.9], 18 [3600.0], 19 [2999.9], 20 [3600.0], 21 [3000.0]
                22 [1200.0], 23 [1200.0]
        2:      24 [3600.0], 25 [3600.0], 26 [2600.0], 27 [2900.0], 28 [3600.0]
                29 [2500.0], 30 [2999.9], 31 [2999.9], 32 [1200.0], 33 [2600.0]
                34 [3300.0], 35 [1200.0]
        3:      36 [2999.9], 37 [1200.0], 38 [2100.0], 39 [3600.0], 40 [3600.0]
                41 [1200.0], 42 [3600.0], 43 [3600.0], 44 [3600.0], 45 [3600.0]
                46 [2999.9], 47 [1200.0]
        
System load averages (1min, 5min, 15min) : 17.3 %, 16.5 %, 15.7 %
HPC is enabled


Simulating `input.scs' on il2244vt26_davidevi at 9:06:19 AM, Thur Apr 16, 2026 (process id: 1047967).
Current working directory: /home/davidevi/Desktop/myproject/Sim/VGA/VGA_1_tb/adexl/results/data/MonteCarlo.3/4/Linerity_MC/groupRunDataDir/netlist
Command line:
    /opt/tools/cadence/installs/SPECTRE241/tools/bin/spectre -64  \
        input.scs +escchars +log ../psf/spectre.out -format psfbin  \
        +rtsf -raw ../psf +aps +mt +lqtimeout 900 -maxw 5 -maxn 5  \
        +param /opt/pdk/ams/410/spectre/ams_range.lmts -env ade  \
        -ahdllibdir  \
        /home/davidevi/Desktop/myproject/Sim/VGA/VGA_1_tb/adexl/results/data/MonteCarlo.3/sharedData/Job471/ahdl/input.ahdlSimDB  \
        +logstatus  \
        +adespetkn=0001089D13A302B663E41FB550AF0DF415A679A322D5069144BF588C12F604E07EF416DC01A319B562BB63D346EF00A645A357FA2ECE26847ED765D873CA4F927CE079D15D9175FF34986BDD0AF002BA50FD7FD707E002A700AC1C841DF643EB0EA979D12FF874D3349879D118F874D334981031BE72D2595D78000036A4

Simulation Id: tudaddJORWPsTqHx
Licensing Information:
[09:06:20.121738] Configured Lic search path (24.01-s002): 3000@lic08.ug.kth.se:29000@lic06.ug.kth.se

Licensing Information:
[09:06:20.321104] Periodic Lic check successful

Loading /opt/tools/cadence/installs/SPECTRE241/tools.lnx86/cmi/lib/64bit/5.0/libinfineon_sh.so ...
Loading /opt/tools/cadence/installs/SPECTRE241/tools.lnx86/cmi/lib/64bit/5.0/libphilips_I_sh.so ...
Loading /opt/tools/cadence/installs/SPECTRE241/tools.lnx86/cmi/lib/64bit/5.0/libphilips_sh.so ...
Loading /opt/tools/cadence/installs/SPECTRE241/tools.lnx86/cmi/lib/64bit/5.0/libsparam_sh.so ...
Loading /opt/tools/cadence/installs/SPECTRE241/tools.lnx86/cmi/lib/64bit/5.0/libstmodels_sh.so ...

Warning from spectre.
    WARNING (SPECTRE-691): This CPU processor does not support x86 advanced vector extensions instructions. This may affect math operations and slow down the simulation.

Reading file:  /home/davidevi/Desktop/myproject/Sim/VGA/VGA_1_tb/adexl/results/data/MonteCarlo.3/4/Linerity_MC/groupRunDataDir/netlist/input.scs
Reading file:  /opt/pdk/ams/410/spectre/ams_range.lmts

Warning from spectre during read of parameter soft limits file `/opt/pdk/ams/410/spectre/ams_range.lmts', during circuit read-in.
    WARNING (SPECTRE-8360): line 1511: `ac' is an undefined primitive device.
    WARNING (SPECTRE-8360): line 1512: `ac' is an undefined primitive device.
    WARNING (SPECTRE-8360): line 1513: `ac' is an undefined primitive device.
    WARNING (SPECTRE-8360): line 1514: `ac' is an undefined primitive device.
    WARNING (SPECTRE-8360): line 1515: `ac' is an undefined primitive device.
        Further occurrences of this warning will be suppressed.

Reading file:  /opt/tools/cadence/installs/SPECTRE241/tools.lnx86/spectre/etc/configs/spectre.cfg
Reading file:  /opt/pdk/ams/410/spectre/c35/soac/soac.scs
Reading file:  /opt/pdk/ams/410/spectre/c35/soac/processOption.scs
Reading file:  /opt/pdk/ams/410/spectre/c35/soac/process.scs
Reading file:  /opt/pdk/ams/410/spectre/c35/soac/soac.va

Warning from spectre during AHDL read-in.
    WARNING (VACOMP-2435): The environment variable CDS_AHDLCMI_ENABLE is no longer supported. Therefore, the simulator will use the default compiled C code flow.

Reading link:  /opt/tools/cadence/installs/SPECTRE241/tools.lnx86/spectre/etc/ahdl/constants.h
Reading file:  /opt/tools/cadence/installs/SPECTRE241/tools.lnx86/spectre/etc/ahdl/constants.vams
Reading link:  /opt/tools/cadence/installs/SPECTRE241/tools.lnx86/spectre/etc/ahdl/discipline.h
Reading file:  /opt/tools/cadence/installs/SPECTRE241/tools.lnx86/spectre/etc/ahdl/disciplines.vams
Reading file:  /opt/pdk/ams/410/spectre/c35/processOption/C35B4C3.scs
Reading file:  /opt/pdk/ams/410/spectre/c35/soac/cmos53.scs
Reading file:  /opt/pdk/ams/410/spectre/c35/soac/res.scs
Reading file:  /opt/pdk/ams/410/spectre/c35/soac/cap.scs
Reading file:  /opt/pdk/ams/410/spectre/c35/soac/bip.scs
Reading file:  /opt/pdk/ams/410/spectre/c35/soac/ind.scs
Reading file:  /opt/pdk/ams/410/spectre/c35/soac/esddiode.scs
Time for NDB Parsing: CPU = 176.98 ms, elapsed = 603.953 ms.
Time accumulated: CPU = 366.644 ms, elapsed = 603.956 ms.
Peak resident memory used = 175 Mbytes.

Existing shared object for module modn_ahdl is up to date.
Installed compiled interface for modn_ahdl.
Existing shared object for module modp_ahdl is up to date.
Installed compiled interface for modp_ahdl.
Existing shared object for module cpoly_ahdl is up to date.
Installed compiled interface for cpoly_ahdl.
Existing shared object for module rpolyh_ahdl is up to date.
Installed compiled interface for rpolyh_ahdl.
Existing shared object for module bsource_19b458 is up to date.
Installed compiled interface for bsource_19b458.
Time for Elaboration: CPU = 59.122 ms, elapsed = 60.6189 ms.
Time accumulated: CPU = 425.926 ms, elapsed = 664.733 ms.
Peak resident memory used = 188 Mbytes.


Notice from spectre during hierarchy flattening.
    The value 'psf' specified for the 'checklimitdest' option will no longer be supported in future releases. Use 'spectre -h' to see other recommended values for the 'checklimitdest' option.


*****************************************************************************************
* 
* INFO: AMS_processOption = C35B4C3
* 
* INFO: Valid Modules  PIP VG5 HIRES
* 
*****************************************************************************************


Time for EDB Visiting: CPU = 8.381 ms, elapsed = 8.3971 ms.
Time accumulated: CPU = 434.488 ms, elapsed = 673.309 ms.
Peak resident memory used = 191 Mbytes.

Loading /opt/tools/cadence/installs/SPECTRE241/tools.lnx86/mdl/lib/64bit/libSpectreEH_sh.so ...

Warning from spectre during initial setup.
    WARNING (SPECTRE-16460): SOAC_cvarm_vspsub:Specified subcircuit master `cvarm' was not found.
    WARNING (SPECTRE-16462): SOAC_cvarm_vspsub:Error in specification of subcircuit master. Assert is ignored.
    WARNING (SPECTRE-16460): SOAC_cvarm_vbs:Specified subcircuit master `cvarm' was not found.
    WARNING (SPECTRE-16462): SOAC_cvarm_vbs:Error in specification of subcircuit master. Assert is ignored.
    WARNING (SPECTRE-16460): SOAC_cvarm_vgb:Specified subcircuit master `cvarm' was not found.
    WARNING (SPECTRE-16462): SOAC_cvarm_vgb:Error in specification of subcircuit master. Assert is ignored.
    WARNING (SPECTRE-16460): SOAC_cvart_vspsub:Specified subcircuit master `cvart' was not found.
    WARNING (SPECTRE-16462): SOAC_cvart_vspsub:Error in specification of subcircuit master. Assert is ignored.
    WARNING (SPECTRE-16460): SOAC_cvart_vbs:Specified subcircuit master `cvart' was not found.
        Further occurrences of this warning will be suppressed.
    WARNING (SPECTRE-16462): SOAC_cvart_vbs:Error in specification of subcircuit master. Assert is ignored.
        Further occurrences of this warning will be suppressed.
Notice from spectre during topology check.
    Only one connection to the following 54 nodes:
        I0.MN6.psub!
        I0.MN5.psub!
        I0.MN4.psub!
        I0.MN3.psub!
        I0.MN2.psub!
        Further occurrences of this notice will be suppressed.
Notice from spectre during initial setup.
    Multithreading is disabled due to the size of the design being too small.


Netlist title:
        // Point Netlist Generated on: Apr 16 09:06:19 2026


Global user options:
         psfversion = 1.4.0
            vabstol = 1e-06
            iabstol = 1e-12
               temp = -40
           homotopy = 5
              limit = delta
         compatible = spice2
               gmin = 1e-12
             rforce = 1
           maxnotes = 5
           maxwarns = 5
             digits = 5
               cols = 80
             pivrel = 0.001
           sensfile = ../psf/sens.output
     checklimitdest = psf
     enable_pre_ver = yes
      ignorezerovar = yes
               save = allpub
             reltol = 0.0001
               tnom = 27
             scalem = 1
              scale = 1

Scoped user options:

Circuit inventory:
              nodes 88
            bsim3v3 35    
     bsource_19b458 2     
          capacitor 38    
         cpoly_ahdl 17    
            isource 1     
          modn_ahdl 19    
          modp_ahdl 16    
           resistor 1     
        rpolyh_ahdl 2     
            vsource 8     

Analysis and control statement inventory:
                 dc 1     
               info 8     
         montecarlo 1     
               tran 1     

Output statements:
             .probe 0     
           .measure 0     
               save 0     

Design checks inventory:
          paramtest 55    
             assert 175   


Notice from spectre during initial setup.
    APS enabled.
    1 notice suppressed.
    72 warnings suppressed.

Time for parsing: CPU = 18.169 ms, elapsed = 630.072 ms.
Time accumulated: CPU = 452.773 ms, elapsed = 1.3035 s.
Peak resident memory used = 198 Mbytes.

~~~~~~~~~~~~~~~~~~~~~~
Pre-Simulation Summary
~~~~~~~~~~~~~~~~~~~~~~
   -   (APS) Multi-threading. The recommended number of threads is 1, consider adding +mt=1 on command line.
~~~~~~~~~~~~~~~~~~~~~~

*************************************************
Monte Carlo Analysis `mc1': iteration = (1 -> 50)
*************************************************
Important parameter values:
    seed = 12345
    sampling = lds
    variations = all
    firstrun = 1
    numruns = 50
    nullmfactorcorrelation = no
    donominal = yes
    method = standard

**** Performing nominal run for `mc1'

******************
DC Analysis `dcOp'
******************

Notice from spectre during DC analysis `dcOp', during Monte Carlo analysis `mc1'.
    No checklimit analysis defined for asserts. A default checklimit analysis 'SpectreChecklimitAnal' has been created with all asserts enabled.


Opening the PSF file ../psf/nom/dcOp.dc ...
Important parameter values:
    reltol = 100e-06
    abstol(V) = 1 uV
    abstol(I) = 1 pA
    temp = -40 C
    tnom = 27 C
    tempeffects = all
    gmindc = 1 pS
    rabsshort = 1 mOhm

Notice from spectre during DC analysis `dcOp', during Monte Carlo analysis `mc1'.
    GminDC = 1 pS is large enough to noticeably affect the DC solution.
        dV(vout) = -224 uV
        Use the `gmin_check' option to eliminate or expand this report.
    Bad pivoting is found during DC analysis. Option dc_pivot_check=yes is recommended for possible improvement of convergence.
SOAC: I0.I5.MP0.soac_m1       modp V(D,S): LEAVING@  0us ;
SOAC: I0.I5.MP0.soac_m1       modp V(D,B): LEAVING@  0us ;
SOAC: I0.I1.MP0.soac_m1       modp V(D,S): LEAVING@  0us ;
SOAC: I0.I1.MP0.soac_m1       modp V(D,B): LEAVING@  0us ;
SOAC: I0.I2.MP0.soac_m1       modp V(D,S): LEAVING@  0us ;
SOAC: I0.I2.MP0.soac_m1       modp V(D,B): LEAVING@  0us ;
SOAC: I0.I3.MP0.soac_m1       modp V(D,S): LEAVING@  0us ;
SOAC: I0.I3.MP0.soac_m1       modp V(D,B): LEAVING@  0us ;

Maximum value achieved for any signal of each quantity: 
V: V(net2) = 3.63 V
I: I(V0:p) = 6.472 uA
Maximum value of each quantity, excluding Verilog-A modules or dangling current sources:
V: V(vout_filt) = 1.6 V
I: I(V0:p) = 6.472 uA

Warning from spectre during check, during DC analysis `dcOp', during Monte Carlo analysis `mc1'.
    WARNING (CMI-2943): Parameter checks have been ignored because the valid value for parameter 'trise' could not be found in 'C1'.
    WARNING (CMI-2943): Parameter checks have been ignored because the valid value for parameter 'trise' could not be found in 'I0.R2.CM'.
    WARNING (CMI-2943): Parameter checks have been ignored because the valid value for parameter 'trise' could not be found in 'I0.R2.CS1'.
    WARNING (CMI-2943): Parameter checks have been ignored because the valid value for parameter 'trise' could not be found in 'I0.R2.CS0'.
    WARNING (CMI-2943): Parameter checks have been ignored because the valid value for parameter 'trise' could not be found in 'I0.C8<3>.C1'.
        Further occurrences of this warning will be suppressed.

Convergence achieved in 19 iterations.

Opening the PSF file ../psf/nom/dcOpViolations.violations ...
DC simulation time: CPU = 90.358 ms, elapsed = 95.0229 ms.
Total time required for dc analysis `dcOp': CPU = 90.442 ms, elapsed = 95.1061 ms, util. = 95.1%.
Time accumulated: CPU = 568.352 ms, elapsed = 1.42516 s.
Peak resident memory used = 207 Mbytes.


Notice from spectre during Monte Carlo analysis `mc1'.
    34 warnings suppressed.

dcOpInfo: writing operating point information to rawfile.

Opening the PSF file ../psf/nom/dcOpInfo.info ...

************************************************
Transient Analysis `tran': time = (0 s -> 40 ms)
************************************************

Notice from spectre during IC analysis, during transient analysis `tran', during Monte Carlo analysis `mc1'.
    GminDC = 1 pS is large enough to noticeably affect the DC solution.
        dV(vout) = -224 uV
        Use the `gmin_check' option to eliminate or expand this report.
    Bad pivoting is found during DC analysis. Option dc_pivot_check=yes is recommended for possible improvement of convergence.
Warning from spectre during check, during IC analysis, during transient analysis `tran', during Monte Carlo analysis `mc1'.
    WARNING (CMI-2943): Parameter checks have been ignored because the valid value for parameter 'trise' could not be found in 'C1'.
    WARNING (CMI-2943): Parameter checks have been ignored because the valid value for parameter 'trise' could not be found in 'I0.R2.CM'.
    WARNING (CMI-2943): Parameter checks have been ignored because the valid value for parameter 'trise' could not be found in 'I0.R2.CS1'.
    WARNING (CMI-2943): Parameter checks have been ignored because the valid value for parameter 'trise' could not be found in 'I0.R2.CS0'.
    WARNING (CMI-2943): Parameter checks have been ignored because the valid value for parameter 'trise' could not be found in 'I0.C8<3>.C1'.
        Further occurrences of this warning will be suppressed.

Convergence achieved in 2 iterations.
DC simulation time: CPU = 1.065 ms, elapsed = 1.06502 ms.

Opening the PSF file ../psf/nom/tran.tran.tran ...
Important parameter values:
    start = 0 s
    outputstart = 0 s
    stop = 40 ms
    step = 40 us
    maxstep = 400 us
    ic = all
    useprevic = no
    skipdc = no
    reltol = 10e-06
    abstol(V) = 1 uV
    abstol(I) = 1 pA
    temp = -40 C
    tnom = 27 C
    tempeffects = all
    errpreset = conservative
    method = gear2only
    lteratio = 10
    relref = alllocal
    cmin = 0 F
    gmin = 1 pS
    rabsshort = 1 mOhm


Notice from spectre during transient analysis `tran', during Monte Carlo analysis `mc1'.
    Multithreading is disabled due to the size of the design being too small.


Output and IC/nodeset summary:
                 save   8       (current)
                 save   87      (voltage)

SOAC: I0.I5.MP0.soac_m1       modp V(D,S): LEAVING@  0us ;
SOAC: I0.I5.MP0.soac_m1       modp V(D,B): LEAVING@  0us ;
SOAC: I0.I1.MP0.soac_m1       modp V(D,S): LEAVING@  0us ;
SOAC: I0.I1.MP0.soac_m1       modp V(D,B): LEAVING@  0us ;
SOAC: I0.I2.MP0.soac_m1       modp V(D,S): LEAVING@  0us ;
SOAC: I0.I2.MP0.soac_m1       modp V(D,B): LEAVING@  0us ;
SOAC: I0.I3.MP0.soac_m1       modp V(D,S): LEAVING@  0us ;
SOAC: I0.I3.MP0.soac_m1       modp V(D,B): LEAVING@  0us ;
    tran: time = 1.028 ms    (2.57 %), step = 47.86 us     (120 m%)
    tran: time = 3.041 ms     (7.6 %), step = 46.95 us     (117 m%)
    tran: time = 5.008 ms    (12.5 %), step = 49.58 us     (124 m%)
    tran: time = 7.022 ms    (17.6 %), step = 48.34 us     (121 m%)
    tran: time = 9.035 ms    (22.6 %), step = 47.32 us     (118 m%)
    tran: time = 11 ms       (27.5 %), step = 50 us        (125 m%)
    tran: time = 13.02 ms    (32.5 %), step = 48.86 us     (122 m%)
    tran: time = 15.03 ms    (37.6 %), step = 47.73 us     (119 m%)
    tran: time = 17.04 ms    (42.6 %), step = 46.85 us     (117 m%)
    tran: time = 19.01 ms    (47.5 %), step = 49.41 us     (124 m%)
    tran: time = 21.02 ms    (52.6 %), step = 48.2 us      (120 m%)
    tran: time = 23.04 ms    (57.6 %), step = 47.21 us     (118 m%)
    tran: time = 25 ms       (62.5 %), step = 50 us        (125 m%)
    tran: time = 27.02 ms    (67.5 %), step = 48.7 us      (122 m%)
    tran: time = 29.03 ms    (72.6 %), step = 47.6 us      (119 m%)
    tran: time = 31.04 ms    (77.6 %), step = 46.76 us     (117 m%)
    tran: time = 33.01 ms    (82.5 %), step = 49.24 us     (123 m%)
    tran: time = 35.03 ms    (87.6 %), step = 48.06 us     (120 m%)
    tran: time = 37.04 ms    (92.6 %), step = 47.11 us     (118 m%)
    tran: time = 39.01 ms    (97.5 %), step = 49.85 us     (125 m%)
Number of accepted tran steps =             851

Maximum value achieved for any signal of each quantity: 
V: V(net2) = 3.63 V
I: I(V0:p) = 6.472 uA
Maximum value of each quantity, excluding Verilog-A modules or dangling current sources:
V: V(vout_filt) = 1.614 V
I: I(V0:p) = 6.472 uA

~~~~~~~~~~~~~~~~~~~~~~~~~~~~~~~~~
Post-Transient Simulation Summary
~~~~~~~~~~~~~~~~~~~~~~~~~~~~~~~~~
   -   To further speed up simulation, consider
          add ++aps on command line
   -   Non-default settings that could significantly slow down simulation
          errpreset = conservative, default moderate
          reltol = 10e-06, default 100e-06 (conservative)
~~~~~~~~~~~~~~~~~~~~~~~~~~~~~~~~~


During simulation, the CPU load for active processors is :
         0 (24.7 %)      1 (49.4 %)      2 (60.5 %)      3 (11.5 %)
         4 (18.6 %)      5 (28.9 %)      6 (100.0 %)     7 (4.7 %)
         8 (5.2 %)       9 (3.5 %)      10 (4.1 %)      11 (27.2 %)
        12 (11.4 %)     13 (2.9 %)      14 (67.8 %)     15 (8.6 %)
        16 (1.7 %)      17 (99.4 %)     18 (32.8 %)     19 (5.1 %)
        20 (7.5 %)      21 (1.2 %)      22 (8.7 %)      23 (5.2 %)
        24 (13.3 %)     25 (3.4 %)      26 (7.5 %)      27 (8.1 %)
        28 (2.9 %)      29 (4.7 %)      30 (100.0 %)    31 (5.8 %)
        32 (11.5 %)     33 (55.5 %)     34 (29.7 %)     35 (4.0 %)
        36 (100.0 %)    37 (6.4 %)      38 (3.5 %)      39 (18.0 %)
        40 (25.0 %)     41 (28.5 %)     42 (48.3 %)     43 (6.9 %)
        44 (4.6 %)      45 (2.9 %)      46 (4.0 %)      47 (2.9 %)
        Total: 1087.9%
Initial condition solution time: CPU = 1.1 ms, elapsed = 1.10197 ms.
Intrinsic tran analysis time:    CPU = 512.776 ms, elapsed = 514.545 ms.

Opening the PSF file ../psf/nom/tranViolations.violations ...
Total time required for tran analysis `tran': CPU = 520.05 ms, elapsed = 525.053 ms, util. = 99%.
Time accumulated: CPU = 1.0974 s, elapsed = 1.96262 s.
Peak resident memory used = 210 Mbytes.


Notice from spectre during transient analysis `tran', during Monte Carlo analysis `mc1'.
    34 warnings suppressed.

finalTimeOP: writing operating point information to rawfile.

Opening the PSF file ../psf/nom/finalTimeOP.info ...
modelParameter: writing model parameter values to rawfile.

Opening the PSF file ../psf/nom/modelParameter.info ...
element: writing instance parameter values to rawfile.

Opening the PSF file ../psf/nom/element.info ...
outputParameter: writing output parameter values to rawfile.

Opening the PSF file ../psf/nom/outputParameter.info ...
designParamVals: writing netlist parameters to rawfile.

Opening the PSFASCII file ../psf/nom/designParamVals.info ...
primitives: writing primitives to rawfile.

Opening the PSFASCII file ../psf/nom/primitives.info.primitives ...
subckts: writing subcircuits to rawfile.

Opening the PSFASCII file ../psf/nom/subckts.info.subckts ...
Opening iteration number and data-directory mapping file:  /home/davidevi/Desktop/myproject/Sim/VGA/VGA_1_tb/adexl/results/data/MonteCarlo.3/4/Linerity_MC/groupRunDataDir/netlist/../psf/mc1.mapping

Statistical parameters:
    Defined process parameters: 629
    Defined mismatch parameters (subckt based): 86
    Non-referenced mismatch parameters: 80
    Number of random variables: 718
    Gaussian truncation for process parameters: 4.00 sigma
    Gaussian truncation for mismatch parameters: 4.00 sigma


Opening the PSF file ../psf/mc1_dcOp.montecarlo ...

Opening the PSF file ../psf/mc1_dcOpInfo.montecarlo ...

Opening the PSF file ../psf/mc1_tran.montecarlo ...

Opening the PSF file ../psf/mc1_finalTimeOP.montecarlo ...

Opening the PSF file ../psf/mc1_modelParameter.montecarlo ...

Opening the PSF file ../psf/mc1_element.montecarlo ...

Opening the PSF file ../psf/mc1_outputParameter.montecarlo ...

Opening the PSF file ../psf/mc1_designParamVals.montecarlo ...

Opening the PSF file ../psf/mc1_primitives.montecarlo ...

Opening the PSF file ../psf/mc1_subckts.montecarlo ...

**** Performing monte carlo loop for `mc1'

1   0.00% 

*****************************************************************************************
* 
* INFO: AMS_processOption = C35B4C3
* 
* INFO: Valid Modules  PIP VG5 HIRES
* 
*****************************************************************************************


******************
DC Analysis `dcOp'
******************

Opening the PSF file ../psf/mc1_separate/001/dcOp.dc ...
Important parameter values:
    reltol = 100e-06
    abstol(V) = 1 uV
    abstol(I) = 1 pA
    temp = -40 C
    tnom = 27 C
    tempeffects = all
    gmindc = 1 pS
    rabsshort = 1 mOhm

Notice from spectre at iteration = 1 during DC analysis `dcOp', during Monte Carlo analysis `mc1'.
    GminDC = 1 pS is large enough to noticeably affect the DC solution.
        dV(vout) = -224.005 uV
        Use the `gmin_check' option to eliminate or expand this report.
    Bad pivoting is found during DC analysis. Option dc_pivot_check=yes is recommended for possible improvement of convergence.
SOAC: I0.I5.MP0.soac_m1       modp V(D,S): LEAVING@  0us ;
SOAC: I0.I5.MP0.soac_m1       modp V(D,B): LEAVING@  0us ;
SOAC: I0.I1.MP0.soac_m1       modp V(D,S): LEAVING@  0us ;
SOAC: I0.I1.MP0.soac_m1       modp V(D,B): LEAVING@  0us ;
SOAC: I0.I2.MP0.soac_m1       modp V(D,S): LEAVING@  0us ;
SOAC: I0.I2.MP0.soac_m1       modp V(D,B): LEAVING@  0us ;
SOAC: I0.I3.MP0.soac_m1       modp V(D,S): LEAVING@  0us ;
SOAC: I0.I3.MP0.soac_m1       modp V(D,B): LEAVING@  0us ;

Maximum value achieved for any signal of each quantity: 
V: V(net2) = 3.63 V
I: I(V0:p) = 6.212 uA
Maximum value of each quantity, excluding Verilog-A modules or dangling current sources:
V: V(vout_filt) = 1.6 V
I: I(V0:p) = 6.212 uA

Warning from spectre at iteration = 1 during check, during DC analysis `dcOp', during Monte Carlo analysis `mc1'.
    WARNING (CMI-2943): Parameter checks have been ignored because the valid value for parameter 'trise' could not be found in 'C1'.
    WARNING (CMI-2943): Parameter checks have been ignored because the valid value for parameter 'trise' could not be found in 'I0.R2.CM'.
    WARNING (CMI-2943): Parameter checks have been ignored because the valid value for parameter 'trise' could not be found in 'I0.R2.CS1'.
    WARNING (CMI-2943): Parameter checks have been ignored because the valid value for parameter 'trise' could not be found in 'I0.R2.CS0'.
    WARNING (CMI-2943): Parameter checks have been ignored because the valid value for parameter 'trise' could not be found in 'I0.C8<3>.C1'.
        Further occurrences of this warning will be suppressed.

Convergence achieved in 20 iterations.

Opening the PSF file ../psf/mc1_dcOpViolations.montecarlo ...

Opening the PSF file ../psf/mc1_separate/001/dcOpViolations.violations ...
DC simulation time: CPU = 10.029 ms, elapsed = 14.8151 ms.
Total time required for dc analysis `dcOp': CPU = 10.754 ms, elapsed = 15.537 ms, util. = 69.2%.
Time accumulated: CPU = 1.19622 s, elapsed = 2.08216 s.
Peak resident memory used = 212 Mbytes.


Notice from spectre at iteration = 1 during Monte Carlo analysis `mc1'.
    34 warnings suppressed.

dcOpInfo: writing operating point information to rawfile.

Opening the PSF file ../psf/mc1_separate/001/dcOpInfo.info ...

************************************************
Transient Analysis `tran': time = (0 s -> 40 ms)
************************************************

Opening the PSF file ../psf/mc1_separate/001/tran.tran.tran ...

Notice from spectre at iteration = 1 during IC analysis, during transient analysis `tran', during Monte Carlo analysis `mc1'.
    GminDC = 1 pS is large enough to noticeably affect the DC solution.
        dV(vout) = -224.005 uV
        Use the `gmin_check' option to eliminate or expand this report.
    Bad pivoting is found during DC analysis. Option dc_pivot_check=yes is recommended for possible improvement of convergence.
Warning from spectre at iteration = 1 during check, during IC analysis, during transient analysis `tran', during Monte Carlo analysis `mc1'.
    WARNING (CMI-2943): Parameter checks have been ignored because the valid value for parameter 'trise' could not be found in 'C1'.
    WARNING (CMI-2943): Parameter checks have been ignored because the valid value for parameter 'trise' could not be found in 'I0.R2.CM'.
    WARNING (CMI-2943): Parameter checks have been ignored because the valid value for parameter 'trise' could not be found in 'I0.R2.CS1'.
    WARNING (CMI-2943): Parameter checks have been ignored because the valid value for parameter 'trise' could not be found in 'I0.R2.CS0'.
    WARNING (CMI-2943): Parameter checks have been ignored because the valid value for parameter 'trise' could not be found in 'I0.C8<3>.C1'.
        Further occurrences of this warning will be suppressed.

Convergence achieved in 20 iterations.
DC simulation time: CPU = 3.17 ms, elapsed = 3.17001 ms.
Important parameter values:
    start = 0 s
    outputstart = 0 s
    stop = 40 ms
    step = 40 us
    maxstep = 400 us
    ic = all
    useprevic = no
    skipdc = no
    reltol = 10e-06
    abstol(V) = 1 uV
    abstol(I) = 1 pA
    temp = -40 C
    tnom = 27 C
    tempeffects = all
    errpreset = conservative
    method = gear2only
    lteratio = 10
    relref = alllocal
    cmin = 0 F
    gmin = 1 pS
    rabsshort = 1 mOhm


Notice from spectre at iteration = 1 during transient analysis `tran', during Monte Carlo analysis `mc1'.
    Multithreading is disabled due to the size of the design being too small.


Output and IC/nodeset summary:
                 save   8       (current)
                 save   87      (voltage)

SOAC: I0.I5.MP0.soac_m1       modp V(D,S): LEAVING@  0us ;
SOAC: I0.I5.MP0.soac_m1       modp V(D,B): LEAVING@  0us ;
SOAC: I0.I1.MP0.soac_m1       modp V(D,S): LEAVING@  0us ;
SOAC: I0.I1.MP0.soac_m1       modp V(D,B): LEAVING@  0us ;
SOAC: I0.I2.MP0.soac_m1       modp V(D,S): LEAVING@  0us ;
SOAC: I0.I2.MP0.soac_m1       modp V(D,B): LEAVING@  0us ;
SOAC: I0.I3.MP0.soac_m1       modp V(D,S): LEAVING@  0us ;
SOAC: I0.I3.MP0.soac_m1       modp V(D,B): LEAVING@  0us ;
    tran: time = 1.026 ms    (2.57 %), step = 48 us        (120 m%)
    tran: time = 3.04 ms      (7.6 %), step = 47.06 us     (118 m%)
    tran: time = 5.007 ms    (12.5 %), step = 49.76 us     (124 m%)
    tran: time = 7.02 ms     (17.6 %), step = 48.49 us     (121 m%)
    tran: time = 9.034 ms    (22.6 %), step = 47.43 us     (119 m%)
    tran: time = 11 ms       (27.5 %), step = 50 us        (125 m%)
    tran: time = 13.01 ms    (32.5 %), step = 49.01 us     (123 m%)
    tran: time = 15.03 ms    (37.6 %), step = 47.85 us     (120 m%)
    tran: time = 17.04 ms    (42.6 %), step = 46.94 us     (117 m%)
    tran: time = 19.01 ms    (47.5 %), step = 49.56 us     (124 m%)
    tran: time = 21.02 ms    (52.6 %), step = 48.32 us     (121 m%)
    tran: time = 23.04 ms    (57.6 %), step = 47.3 us      (118 m%)
    tran: time = 25 ms       (62.5 %), step = 50 us        (125 m%)
    tran: time = 27.02 ms    (67.5 %), step = 48.83 us     (122 m%)
    tran: time = 29.03 ms    (72.6 %), step = 47.7 us      (119 m%)
    tran: time = 31.04 ms    (77.6 %), step = 46.83 us     (117 m%)
    tran: time = 33.01 ms    (82.5 %), step = 49.36 us     (123 m%)
    tran: time = 35.02 ms    (87.6 %), step = 48.16 us     (120 m%)
    tran: time = 37.04 ms    (92.6 %), step = 47.18 us     (118 m%)
    tran: time = 39 ms       (97.5 %), step = 49.96 us     (125 m%)
Number of accepted tran steps =             851

Maximum value achieved for any signal of each quantity: 
V: V(net2) = 3.63 V
I: I(V0:p) = 6.212 uA
Maximum value of each quantity, excluding Verilog-A modules or dangling current sources:
V: V(vout_filt) = 1.614 V
I: I(V0:p) = 6.212 uA

~~~~~~~~~~~~~~~~~~~~~~~~~~~~~~~~~
Post-Transient Simulation Summary
~~~~~~~~~~~~~~~~~~~~~~~~~~~~~~~~~
   -   To further speed up simulation, consider
          add ++aps on command line
   -   Non-default settings that could significantly slow down simulation
          errpreset = conservative, default moderate
          reltol = 10e-06, default 100e-06 (conservative)
~~~~~~~~~~~~~~~~~~~~~~~~~~~~~~~~~


During simulation, the CPU load for active processors is :
         0 (18.5 %)      1 (62.6 %)      2 (46.3 %)      3 (33.8 %)
         4 (19.0 %)      5 (21.1 %)      6 (100.0 %)     7 (3.8 %)
         8 (4.2 %)       9 (2.6 %)      10 (4.2 %)      11 (21.4 %)
        12 (12.1 %)     13 (2.5 %)      14 (76.7 %)     15 (7.5 %)
        16 (1.7 %)      17 (99.6 %)     18 (24.3 %)     19 (6.3 %)
        20 (5.5 %)      21 (3.7 %)      22 (12.2 %)     23 (4.2 %)
        24 (9.7 %)      25 (2.5 %)      26 (7.5 %)      27 (7.6 %)
        28 (3.0 %)      29 (3.8 %)      30 (100.0 %)    31 (4.6 %)
        32 (8.4 %)      33 (66.9 %)     34 (21.8 %)     35 (3.4 %)
        36 (100.0 %)    37 (5.5 %)      38 (22.3 %)     39 (13.5 %)
        40 (19.8 %)     41 (26.7 %)     42 (35.4 %)     43 (5.5 %)
        44 (4.2 %)      45 (2.5 %)      46 (4.2 %)      47 (2.1 %)
        Total: 1074.8%
Initial condition solution time: CPU = 3.206 ms, elapsed = 3.20697 ms.
Intrinsic tran analysis time:    CPU = 506.576 ms, elapsed = 507.931 ms.

Opening the PSF file ../psf/mc1_tranViolations.montecarlo ...

Opening the PSF file ../psf/mc1_separate/001/tranViolations.violations ...
Total time required for tran analysis `tran': CPU = 515.448 ms, elapsed = 520.129 ms, util. = 99.1%.
Time accumulated: CPU = 1.71852 s, elapsed = 2.61164 s.
Peak resident memory used = 214 Mbytes.


Notice from spectre during transient analysis `tran', during Monte Carlo analysis `mc1'.
    34 warnings suppressed.

finalTimeOP: writing operating point information to rawfile.

Opening the PSF file ../psf/mc1_separate/001/finalTimeOP.info ...
modelParameter: writing model parameter values to rawfile.

Opening the PSF file ../psf/mc1_separate/001/modelParameter.info ...
element: writing instance parameter values to rawfile.

Opening the PSF file ../psf/mc1_separate/001/element.info ...
outputParameter: writing output parameter values to rawfile.

Opening the PSF file ../psf/mc1_separate/001/outputParameter.info ...
designParamVals: writing netlist parameters to rawfile.

Opening the PSFASCII file ../psf/mc1_separate/001/designParamVals.info ...
primitives: writing primitives to rawfile.

Opening the PSFASCII file ../psf/mc1_separate/001/primitives.info.primitives ...
subckts: writing subcircuits to rawfile.

Opening the PSFASCII file ../psf/mc1_separate/001/subckts.info.subckts ...
2   2.04% 

*****************************************************************************************
* 
* INFO: AMS_processOption = C35B4C3
* 
* INFO: Valid Modules  PIP VG5 HIRES
* 
*****************************************************************************************


******************
DC Analysis `dcOp'
******************

Opening the PSF file ../psf/mc1_separate/002/dcOp.dc ...
Important parameter values:
    reltol = 100e-06
    abstol(V) = 1 uV
    abstol(I) = 1 pA
    temp = -40 C
    tnom = 27 C
    tempeffects = all
    gmindc = 1 pS
    rabsshort = 1 mOhm

Notice from spectre during DC analysis `dcOp', during Monte Carlo analysis `mc1'.
    GminDC = 1 pS is large enough to noticeably affect the DC solution.
        dV(vout) = -224.004 uV
        Use the `gmin_check' option to eliminate or expand this report.
    Bad pivoting is found during DC analysis. Option dc_pivot_check=yes is recommended for possible improvement of convergence.
SOAC: I0.I5.MP0.soac_m1       modp V(D,S): LEAVING@  0us ;
SOAC: I0.I5.MP0.soac_m1       modp V(D,B): LEAVING@  0us ;
SOAC: I0.I1.MP0.soac_m1       modp V(D,S): LEAVING@  0us ;
SOAC: I0.I1.MP0.soac_m1       modp V(D,B): LEAVING@  0us ;
SOAC: I0.I2.MP0.soac_m1       modp V(D,S): LEAVING@  0us ;
SOAC: I0.I2.MP0.soac_m1       modp V(D,B): LEAVING@  0us ;
SOAC: I0.I3.MP0.soac_m1       modp V(D,S): LEAVING@  0us ;
SOAC: I0.I3.MP0.soac_m1       modp V(D,B): LEAVING@  0us ;

Maximum value achieved for any signal of each quantity: 
V: V(net2) = 3.63 V
I: I(V0:p) = 6.509 uA
Maximum value of each quantity, excluding Verilog-A modules or dangling current sources:
V: V(vout_filt) = 1.6 V
I: I(V0:p) = 6.509 uA

Warning from spectre during check, during DC analysis `dcOp', during Monte Carlo analysis `mc1'.
    WARNING (CMI-2943): Parameter checks have been ignored because the valid value for parameter 'trise' could not be found in 'C1'.
    WARNING (CMI-2943): Parameter checks have been ignored because the valid value for parameter 'trise' could not be found in 'I0.R2.CM'.
    WARNING (CMI-2943): Parameter checks have been ignored because the valid value for parameter 'trise' could not be found in 'I0.R2.CS1'.
    WARNING (CMI-2943): Parameter checks have been ignored because the valid value for parameter 'trise' could not be found in 'I0.R2.CS0'.
    WARNING (CMI-2943): Parameter checks have been ignored because the valid value for parameter 'trise' could not be found in 'I0.C8<3>.C1'.
        Further occurrences of this warning will be suppressed.

Convergence achieved in 19 iterations.

Opening the PSF file ../psf/mc1_separate/002/dcOpViolations.violations ...
DC simulation time: CPU = 8.487 ms, elapsed = 12.0339 ms.
Total time required for dc analysis `dcOp': CPU = 9.011 ms, elapsed = 12.557 ms, util. = 71.8%.
Time accumulated: CPU = 1.7663 s, elapsed = 2.67394 s.
Peak resident memory used = 214 Mbytes.


Notice from spectre during Monte Carlo analysis `mc1'.
    34 warnings suppressed.

dcOpInfo: writing operating point information to rawfile.

Opening the PSF file ../psf/mc1_separate/002/dcOpInfo.info ...

************************************************
Transient Analysis `tran': time = (0 s -> 40 ms)
************************************************

Opening the PSF file ../psf/mc1_separate/002/tran.tran.tran ...

Notice from spectre during IC analysis, during transient analysis `tran', during Monte Carlo analysis `mc1'.
    GminDC = 1 pS is large enough to noticeably affect the DC solution.
        dV(vout) = -224.004 uV
        Use the `gmin_check' option to eliminate or expand this report.
    Bad pivoting is found during DC analysis. Option dc_pivot_check=yes is recommended for possible improvement of convergence.
Warning from spectre during check, during IC analysis, during transient analysis `tran', during Monte Carlo analysis `mc1'.
    WARNING (CMI-2943): Parameter checks have been ignored because the valid value for parameter 'trise' could not be found in 'C1'.
    WARNING (CMI-2943): Parameter checks have been ignored because the valid value for parameter 'trise' could not be found in 'I0.R2.CM'.
    WARNING (CMI-2943): Parameter checks have been ignored because the valid value for parameter 'trise' could not be found in 'I0.R2.CS1'.
    WARNING (CMI-2943): Parameter checks have been ignored because the valid value for parameter 'trise' could not be found in 'I0.R2.CS0'.
    WARNING (CMI-2943): Parameter checks have been ignored because the valid value for parameter 'trise' could not be found in 'I0.C8<3>.C1'.
        Further occurrences of this warning will be suppressed.

Convergence achieved in 19 iterations.
DC simulation time: CPU = 2.962 ms, elapsed = 2.96283 ms.
Important parameter values:
    start = 0 s
    outputstart = 0 s
    stop = 40 ms
    step = 40 us
    maxstep = 400 us
    ic = all
    useprevic = no
    skipdc = no
    reltol = 10e-06
    abstol(V) = 1 uV
    abstol(I) = 1 pA
    temp = -40 C
    tnom = 27 C
    tempeffects = all
    errpreset = conservative
    method = gear2only
    lteratio = 10
    relref = alllocal
    cmin = 0 F
    gmin = 1 pS
    rabsshort = 1 mOhm


Notice from spectre during transient analysis `tran', during Monte Carlo analysis `mc1'.
    Multithreading is disabled due to the size of the design being too small.


Output and IC/nodeset summary:
                 save   8       (current)
                 save   87      (voltage)

SOAC: I0.I5.MP0.soac_m1       modp V(D,S): LEAVING@  0us ;
SOAC: I0.I5.MP0.soac_m1       modp V(D,B): LEAVING@  0us ;
SOAC: I0.I1.MP0.soac_m1       modp V(D,S): LEAVING@  0us ;
SOAC: I0.I1.MP0.soac_m1       modp V(D,B): LEAVING@  0us ;
SOAC: I0.I2.MP0.soac_m1       modp V(D,S): LEAVING@  0us ;
SOAC: I0.I2.MP0.soac_m1       modp V(D,B): LEAVING@  0us ;
SOAC: I0.I3.MP0.soac_m1       modp V(D,S): LEAVING@  0us ;
SOAC: I0.I3.MP0.soac_m1       modp V(D,B): LEAVING@  0us ;
    tran: time = 1.028 ms    (2.57 %), step = 47.84 us     (120 m%)
    tran: time = 3.042 ms     (7.6 %), step = 46.93 us     (117 m%)
    tran: time = 5.009 ms    (12.5 %), step = 49.54 us     (124 m%)
    tran: time = 7.022 ms    (17.6 %), step = 48.31 us     (121 m%)
    tran: time = 9.036 ms    (22.6 %), step = 47.29 us     (118 m%)
    tran: time = 11 ms       (27.5 %), step = 50 us        (125 m%)
    tran: time = 13.02 ms    (32.5 %), step = 48.82 us     (122 m%)
    tran: time = 15.03 ms    (37.6 %), step = 47.69 us     (119 m%)
    tran: time = 17.04 ms    (42.6 %), step = 46.83 us     (117 m%)
    tran: time = 19.01 ms    (47.5 %), step = 49.36 us     (123 m%)
    tran: time = 21.02 ms    (52.6 %), step = 48.16 us     (120 m%)
    tran: time = 23.04 ms    (57.6 %), step = 47.17 us     (118 m%)
    tran: time = 25 ms       (62.5 %), step = 49.96 us     (125 m%)
    tran: time = 27.02 ms    (67.5 %), step = 48.65 us     (122 m%)
    tran: time = 29.03 ms    (72.6 %), step = 47.56 us     (119 m%)
    tran: time = 31.05 ms    (77.6 %), step = 46.72 us     (117 m%)
    tran: time = 33.01 ms    (82.5 %), step = 49.18 us     (123 m%)
    tran: time = 35.03 ms    (87.6 %), step = 48.01 us     (120 m%)
    tran: time = 37.04 ms    (92.6 %), step = 47.06 us     (118 m%)
    tran: time = 39.01 ms    (97.5 %), step = 49.77 us     (124 m%)
Number of accepted tran steps =             851

Maximum value achieved for any signal of each quantity: 
V: V(net2) = 3.63 V
I: I(V0:p) = 6.509 uA
Maximum value of each quantity, excluding Verilog-A modules or dangling current sources:
V: V(vout_filt) = 1.614 V
I: I(V0:p) = 6.509 uA

~~~~~~~~~~~~~~~~~~~~~~~~~~~~~~~~~
Post-Transient Simulation Summary
~~~~~~~~~~~~~~~~~~~~~~~~~~~~~~~~~
   -   To further speed up simulation, consider
          add ++aps on command line
   -   Non-default settings that could significantly slow down simulation
          errpreset = conservative, default moderate
          reltol = 10e-06, default 100e-06 (conservative)
~~~~~~~~~~~~~~~~~~~~~~~~~~~~~~~~~


During simulation, the CPU load for active processors is :
         0 (15.2 %)      1 (69.3 %)      2 (37.7 %)      3 (46.3 %)
         4 (19.4 %)      5 (17.6 %)      6 (100.0 %)     7 (3.1 %)
         8 (3.7 %)       9 (3.1 %)      10 (3.4 %)      11 (18.1 %)
        12 (11.6 %)     13 (2.7 %)      14 (81.2 %)     15 (6.1 %)
        16 (1.4 %)      17 (99.7 %)     18 (20.4 %)     19 (5.1 %)
        20 (21.3 %)     21 (4.0 %)      22 (11.2 %)     23 (7.7 %)
        24 (7.9 %)      25 (3.7 %)      26 (6.1 %)      27 (6.8 %)
        28 (4.4 %)      29 (4.1 %)      30 (99.7 %)     31 (4.1 %)
        32 (6.8 %)      33 (72.7 %)     34 (17.6 %)     35 (3.7 %)
        36 (100.0 %)    37 (5.1 %)      38 (37.2 %)     39 (11.6 %)
        40 (16.6 %)     41 (24.4 %)     42 (43.4 %)     43 (5.8 %)
        44 (4.1 %)      45 (2.7 %)      46 (4.4 %)      47 (2.4 %)
        Total: 1104.2%
Initial condition solution time: CPU = 3.008 ms, elapsed = 3.00908 ms.
Intrinsic tran analysis time:    CPU = 508.163 ms, elapsed = 509.554 ms.

Opening the PSF file ../psf/mc1_separate/002/tranViolations.violations ...
Total time required for tran analysis `tran': CPU = 515.995 ms, elapsed = 520.329 ms, util. = 99.2%.
Time accumulated: CPU = 2.28945 s, elapsed = 3.20378 s.
Peak resident memory used = 214 Mbytes.


Notice from spectre during transient analysis `tran', during Monte Carlo analysis `mc1'.
    34 warnings suppressed.

finalTimeOP: writing operating point information to rawfile.

Opening the PSF file ../psf/mc1_separate/002/finalTimeOP.info ...
modelParameter: writing model parameter values to rawfile.

Opening the PSF file ../psf/mc1_separate/002/modelParameter.info ...
element: writing instance parameter values to rawfile.

Opening the PSF file ../psf/mc1_separate/002/element.info ...
outputParameter: writing output parameter values to rawfile.

Opening the PSF file ../psf/mc1_separate/002/outputParameter.info ...
designParamVals: writing netlist parameters to rawfile.

Opening the PSFASCII file ../psf/mc1_separate/002/designParamVals.info ...
primitives: writing primitives to rawfile.

Opening the PSFASCII file ../psf/mc1_separate/002/primitives.info.primitives ...
subckts: writing subcircuits to rawfile.

Opening the PSFASCII file ../psf/mc1_separate/002/subckts.info.subckts ...
3   4.08% 

*****************************************************************************************
* 
* INFO: AMS_processOption = C35B4C3
* 
* INFO: Valid Modules  PIP VG5 HIRES
* 
*****************************************************************************************


******************
DC Analysis `dcOp'
******************

Opening the PSF file ../psf/mc1_separate/003/dcOp.dc ...
Important parameter values:
    reltol = 100e-06
    abstol(V) = 1 uV
    abstol(I) = 1 pA
    temp = -40 C
    tnom = 27 C
    tempeffects = all
    gmindc = 1 pS
    rabsshort = 1 mOhm

Notice from spectre during DC analysis `dcOp', during Monte Carlo analysis `mc1'.
    GminDC = 1 pS is large enough to noticeably affect the DC solution.
        dV(vout) = -224.006 uV
        Use the `gmin_check' option to eliminate or expand this report.
    Bad pivoting is found during DC analysis. Option dc_pivot_check=yes is recommended for possible improvement of convergence.
SOAC: I0.I5.MP0.soac_m1       modp V(D,S): LEAVING@  0us ;
SOAC: I0.I5.MP0.soac_m1       modp V(D,B): LEAVING@  0us ;
SOAC: I0.I1.MP0.soac_m1       modp V(D,S): LEAVING@  0us ;
SOAC: I0.I1.MP0.soac_m1       modp V(D,B): LEAVING@  0us ;
SOAC: I0.I2.MP0.soac_m1       modp V(D,S): LEAVING@  0us ;
SOAC: I0.I2.MP0.soac_m1       modp V(D,B): LEAVING@  0us ;
SOAC: I0.I3.MP0.soac_m1       modp V(D,S): LEAVING@  0us ;
SOAC: I0.I3.MP0.soac_m1       modp V(D,B): LEAVING@  0us ;

Maximum value achieved for any signal of each quantity: 
V: V(net2) = 3.63 V
I: I(V0:p) = 6.364 uA
Maximum value of each quantity, excluding Verilog-A modules or dangling current sources:
V: V(vout_filt) = 1.6 V
I: I(V0:p) = 6.364 uA

Warning from spectre during check, during DC analysis `dcOp', during Monte Carlo analysis `mc1'.
    WARNING (CMI-2943): Parameter checks have been ignored because the valid value for parameter 'trise' could not be found in 'C1'.
    WARNING (CMI-2943): Parameter checks have been ignored because the valid value for parameter 'trise' could not be found in 'I0.R2.CM'.
    WARNING (CMI-2943): Parameter checks have been ignored because the valid value for parameter 'trise' could not be found in 'I0.R2.CS1'.
    WARNING (CMI-2943): Parameter checks have been ignored because the valid value for parameter 'trise' could not be found in 'I0.R2.CS0'.
    WARNING (CMI-2943): Parameter checks have been ignored because the valid value for parameter 'trise' could not be found in 'I0.C8<3>.C1'.
        Further occurrences of this warning will be suppressed.

Convergence achieved in 19 iterations.

Opening the PSF file ../psf/mc1_separate/003/dcOpViolations.violations ...
DC simulation time: CPU = 8.663 ms, elapsed = 12.2781 ms.
Total time required for dc analysis `dcOp': CPU = 9.185 ms, elapsed = 12.799 ms, util. = 71.8%.
Time accumulated: CPU = 2.33623 s, elapsed = 3.26619 s.
Peak resident memory used = 214 Mbytes.


Notice from spectre during Monte Carlo analysis `mc1'.
    34 warnings suppressed.

dcOpInfo: writing operating point information to rawfile.

Opening the PSF file ../psf/mc1_separate/003/dcOpInfo.info ...

************************************************
Transient Analysis `tran': time = (0 s -> 40 ms)
************************************************

Opening the PSF file ../psf/mc1_separate/003/tran.tran.tran ...

Notice from spectre during IC analysis, during transient analysis `tran', during Monte Carlo analysis `mc1'.
    GminDC = 1 pS is large enough to noticeably affect the DC solution.
        dV(vout) = -224.006 uV
        Use the `gmin_check' option to eliminate or expand this report.
    Bad pivoting is found during DC analysis. Option dc_pivot_check=yes is recommended for possible improvement of convergence.
Warning from spectre during check, during IC analysis, during transient analysis `tran', during Monte Carlo analysis `mc1'.
    WARNING (CMI-2943): Parameter checks have been ignored because the valid value for parameter 'trise' could not be found in 'C1'.
    WARNING (CMI-2943): Parameter checks have been ignored because the valid value for parameter 'trise' could not be found in 'I0.R2.CM'.
    WARNING (CMI-2943): Parameter checks have been ignored because the valid value for parameter 'trise' could not be found in 'I0.R2.CS1'.
    WARNING (CMI-2943): Parameter checks have been ignored because the valid value for parameter 'trise' could not be found in 'I0.R2.CS0'.
    WARNING (CMI-2943): Parameter checks have been ignored because the valid value for parameter 'trise' could not be found in 'I0.C8<3>.C1'.
        Further occurrences of this warning will be suppressed.

Convergence achieved in 19 iterations.
DC simulation time: CPU = 2.978 ms, elapsed = 2.97904 ms.
Important parameter values:
    start = 0 s
    outputstart = 0 s
    stop = 40 ms
    step = 40 us
    maxstep = 400 us
    ic = all
    useprevic = no
    skipdc = no
    reltol = 10e-06
    abstol(V) = 1 uV
    abstol(I) = 1 pA
    temp = -40 C
    tnom = 27 C
    tempeffects = all
    errpreset = conservative
    method = gear2only
    lteratio = 10
    relref = alllocal
    cmin = 0 F
    gmin = 1 pS
    rabsshort = 1 mOhm


Notice from spectre during transient analysis `tran', during Monte Carlo analysis `mc1'.
    Multithreading is disabled due to the size of the design being too small.


Output and IC/nodeset summary:
                 save   8       (current)
                 save   87      (voltage)

SOAC: I0.I5.MP0.soac_m1       modp V(D,S): LEAVING@  0us ;
SOAC: I0.I5.MP0.soac_m1       modp V(D,B): LEAVING@  0us ;
SOAC: I0.I1.MP0.soac_m1       modp V(D,S): LEAVING@  0us ;
SOAC: I0.I1.MP0.soac_m1       modp V(D,B): LEAVING@  0us ;
SOAC: I0.I2.MP0.soac_m1       modp V(D,S): LEAVING@  0us ;
SOAC: I0.I2.MP0.soac_m1       modp V(D,B): LEAVING@  0us ;
SOAC: I0.I3.MP0.soac_m1       modp V(D,S): LEAVING@  0us ;
SOAC: I0.I3.MP0.soac_m1       modp V(D,B): LEAVING@  0us ;
    tran: time = 1.027 ms    (2.57 %), step = 47.95 us     (120 m%)
    tran: time = 3.04 ms      (7.6 %), step = 47.02 us     (118 m%)
    tran: time = 5.007 ms    (12.5 %), step = 49.71 us     (124 m%)
    tran: time = 7.02 ms     (17.6 %), step = 48.45 us     (121 m%)
    tran: time = 9.034 ms    (22.6 %), step = 47.41 us     (119 m%)
    tran: time = 11 ms       (27.5 %), step = 50 us        (125 m%)
    tran: time = 13.01 ms    (32.5 %), step = 48.99 us     (122 m%)
    tran: time = 15.03 ms    (37.6 %), step = 47.84 us     (120 m%)
    tran: time = 17.04 ms    (42.6 %), step = 46.94 us     (117 m%)
    tran: time = 19.01 ms    (47.5 %), step = 49.56 us     (124 m%)
    tran: time = 21.02 ms    (52.6 %), step = 48.33 us     (121 m%)
    tran: time = 23.04 ms    (57.6 %), step = 47.32 us     (118 m%)
    tran: time = 25 ms       (62.5 %), step = 50 us        (125 m%)
    tran: time = 27.02 ms    (67.5 %), step = 48.86 us     (122 m%)
    tran: time = 29.03 ms    (72.6 %), step = 47.73 us     (119 m%)
    tran: time = 31.04 ms    (77.6 %), step = 46.86 us     (117 m%)
    tran: time = 33.01 ms    (82.5 %), step = 49.42 us     (124 m%)
    tran: time = 35.02 ms    (87.6 %), step = 48.21 us     (121 m%)
    tran: time = 37.04 ms    (92.6 %), step = 47.22 us     (118 m%)
    tran: time = 39 ms       (97.5 %), step = 50 us        (125 m%)
Number of accepted tran steps =             851

Maximum value achieved for any signal of each quantity: 
V: V(net2) = 3.63 V
I: I(V0:p) = 6.364 uA
Maximum value of each quantity, excluding Verilog-A modules or dangling current sources:
V: V(vout_filt) = 1.614 V
I: I(V0:p) = 6.364 uA

~~~~~~~~~~~~~~~~~~~~~~~~~~~~~~~~~
Post-Transient Simulation Summary
~~~~~~~~~~~~~~~~~~~~~~~~~~~~~~~~~
   -   To further speed up simulation, consider
          add ++aps on command line
   -   Non-default settings that could significantly slow down simulation
          errpreset = conservative, default moderate
          reltol = 10e-06, default 100e-06 (conservative)
~~~~~~~~~~~~~~~~~~~~~~~~~~~~~~~~~


During simulation, the CPU load for active processors is :
         0 (13.7 %)      1 (62.0 %)      2 (32.0 %)      3 (40.2 %)
         4 (31.6 %)      5 (14.7 %)      6 (100.0 %)     7 (2.6 %)
         8 (18.4 %)      9 (3.1 %)      10 (3.7 %)      11 (15.7 %)
        12 (13.6 %)     13 (2.5 %)      14 (84.4 %)     15 (5.6 %)
        16 (1.4 %)      17 (99.7 %)     18 (17.6 %)     19 (4.5 %)
        20 (33.7 %)     21 (4.2 %)      22 (12.7 %)     23 (7.0 %)
        24 (7.1 %)      25 (19.3 %)     26 (5.1 %)      27 (6.8 %)
        28 (4.0 %)      29 (3.9 %)      30 (99.7 %)     31 (4.2 %)
        32 (9.9 %)      33 (73.3 %)     34 (14.9 %)     35 (3.7 %)
        36 (100.0 %)    37 (4.8 %)      38 (47.3 %)     39 (10.7 %)
        40 (14.7 %)     41 (20.5 %)     42 (52.3 %)     43 (5.9 %)
        44 (6.5 %)      45 (4.0 %)      46 (4.8 %)      47 (3.1 %)
        Total: 1151.4%
Initial condition solution time: CPU = 3.009 ms, elapsed = 3.01099 ms.
Intrinsic tran analysis time:    CPU = 507.215 ms, elapsed = 508.774 ms.

Opening the PSF file ../psf/mc1_separate/003/tranViolations.violations ...
Total time required for tran analysis `tran': CPU = 514.922 ms, elapsed = 519.155 ms, util. = 99.2%.
Time accumulated: CPU = 2.85834 s, elapsed = 3.79486 s.
Peak resident memory used = 214 Mbytes.


Notice from spectre during transient analysis `tran', during Monte Carlo analysis `mc1'.
    34 warnings suppressed.

finalTimeOP: writing operating point information to rawfile.

Opening the PSF file ../psf/mc1_separate/003/finalTimeOP.info ...
modelParameter: writing model parameter values to rawfile.

Opening the PSF file ../psf/mc1_separate/003/modelParameter.info ...
element: writing instance parameter values to rawfile.

Opening the PSF file ../psf/mc1_separate/003/element.info ...
outputParameter: writing output parameter values to rawfile.

Opening the PSF file ../psf/mc1_separate/003/outputParameter.info ...
designParamVals: writing netlist parameters to rawfile.

Opening the PSFASCII file ../psf/mc1_separate/003/designParamVals.info ...
primitives: writing primitives to rawfile.

Opening the PSFASCII file ../psf/mc1_separate/003/primitives.info.primitives ...
subckts: writing subcircuits to rawfile.

Opening the PSFASCII file ../psf/mc1_separate/003/subckts.info.subckts ...
    mc1: iteration = 3           (4.08 %), step = 1            (2.04 %)
4   6.12% 

*****************************************************************************************
* 
* INFO: AMS_processOption = C35B4C3
* 
* INFO: Valid Modules  PIP VG5 HIRES
* 
*****************************************************************************************


******************
DC Analysis `dcOp'
******************

Opening the PSF file ../psf/mc1_separate/004/dcOp.dc ...
Important parameter values:
    reltol = 100e-06
    abstol(V) = 1 uV
    abstol(I) = 1 pA
    temp = -40 C
    tnom = 27 C
    tempeffects = all
    gmindc = 1 pS
    rabsshort = 1 mOhm

Notice from spectre during DC analysis `dcOp', during Monte Carlo analysis `mc1'.
    GminDC = 1 pS is large enough to noticeably affect the DC solution.
        dV(vout) = -223.837 uV
        Use the `gmin_check' option to eliminate or expand this report.
    Bad pivoting is found during DC analysis. Option dc_pivot_check=yes is recommended for possible improvement of convergence.
SOAC: I0.I5.MP0.soac_m1       modp V(D,S): LEAVING@  0us ;
SOAC: I0.I5.MP0.soac_m1       modp V(D,B): LEAVING@  0us ;
SOAC: I0.I1.MP0.soac_m1       modp V(D,S): LEAVING@  0us ;
SOAC: I0.I1.MP0.soac_m1       modp V(D,B): LEAVING@  0us ;
SOAC: I0.I2.MP0.soac_m1       modp V(D,S): LEAVING@  0us ;
SOAC: I0.I2.MP0.soac_m1       modp V(D,B): LEAVING@  0us ;
SOAC: I0.I3.MP0.soac_m1       modp V(D,S): LEAVING@  0us ;
SOAC: I0.I3.MP0.soac_m1       modp V(D,B): LEAVING@  0us ;

Maximum value achieved for any signal of each quantity: 
V: V(net2) = 3.63 V
I: I(V0:p) = 6.558 uA
Maximum value of each quantity, excluding Verilog-A modules or dangling current sources:
V: V(net1) = 1.6 V
I: I(V0:p) = 6.558 uA

Warning from spectre during check, during DC analysis `dcOp', during Monte Carlo analysis `mc1'.
    WARNING (CMI-2943): Parameter checks have been ignored because the valid value for parameter 'trise' could not be found in 'C1'.
    WARNING (CMI-2943): Parameter checks have been ignored because the valid value for parameter 'trise' could not be found in 'I0.R2.CM'.
    WARNING (CMI-2943): Parameter checks have been ignored because the valid value for parameter 'trise' could not be found in 'I0.R2.CS1'.
    WARNING (CMI-2943): Parameter checks have been ignored because the valid value for parameter 'trise' could not be found in 'I0.R2.CS0'.
    WARNING (CMI-2943): Parameter checks have been ignored because the valid value for parameter 'trise' could not be found in 'I0.C8<3>.C1'.
        Further occurrences of this warning will be suppressed.

Convergence achieved in 19 iterations.

Opening the PSF file ../psf/mc1_separate/004/dcOpViolations.violations ...
DC simulation time: CPU = 8.297 ms, elapsed = 12.032 ms.
Total time required for dc analysis `dcOp': CPU = 8.793 ms, elapsed = 12.5289 ms, util. = 70.2%.
Time accumulated: CPU = 2.90479 s, elapsed = 3.85499 s.
Peak resident memory used = 214 Mbytes.


Notice from spectre during Monte Carlo analysis `mc1'.
    34 warnings suppressed.

dcOpInfo: writing operating point information to rawfile.

Opening the PSF file ../psf/mc1_separate/004/dcOpInfo.info ...

************************************************
Transient Analysis `tran': time = (0 s -> 40 ms)
************************************************

Opening the PSF file ../psf/mc1_separate/004/tran.tran.tran ...

Notice from spectre during IC analysis, during transient analysis `tran', during Monte Carlo analysis `mc1'.
    GminDC = 1 pS is large enough to noticeably affect the DC solution.
        dV(vout) = -223.837 uV
        Use the `gmin_check' option to eliminate or expand this report.
    Bad pivoting is found during DC analysis. Option dc_pivot_check=yes is recommended for possible improvement of convergence.
Warning from spectre during check, during IC analysis, during transient analysis `tran', during Monte Carlo analysis `mc1'.
    WARNING (CMI-2943): Parameter checks have been ignored because the valid value for parameter 'trise' could not be found in 'C1'.
    WARNING (CMI-2943): Parameter checks have been ignored because the valid value for parameter 'trise' could not be found in 'I0.R2.CM'.
    WARNING (CMI-2943): Parameter checks have been ignored because the valid value for parameter 'trise' could not be found in 'I0.R2.CS1'.
    WARNING (CMI-2943): Parameter checks have been ignored because the valid value for parameter 'trise' could not be found in 'I0.R2.CS0'.
    WARNING (CMI-2943): Parameter checks have been ignored because the valid value for parameter 'trise' could not be found in 'I0.C8<3>.C1'.
        Further occurrences of this warning will be suppressed.

Convergence achieved in 19 iterations.
DC simulation time: CPU = 2.862 ms, elapsed = 2.86198 ms.
Important parameter values:
    start = 0 s
    outputstart = 0 s
    stop = 40 ms
    step = 40 us
    maxstep = 400 us
    ic = all
    useprevic = no
    skipdc = no
    reltol = 10e-06
    abstol(V) = 1 uV
    abstol(I) = 1 pA
    temp = -40 C
    tnom = 27 C
    tempeffects = all
    errpreset = conservative
    method = gear2only
    lteratio = 10
    relref = alllocal
    cmin = 0 F
    gmin = 1 pS
    rabsshort = 1 mOhm


Notice from spectre during transient analysis `tran', during Monte Carlo analysis `mc1'.
    Multithreading is disabled due to the size of the design being too small.


Output and IC/nodeset summary:
                 save   8       (current)
                 save   87      (voltage)

SOAC: I0.I5.MP0.soac_m1       modp V(D,S): LEAVING@  0us ;
SOAC: I0.I5.MP0.soac_m1       modp V(D,B): LEAVING@  0us ;
SOAC: I0.I1.MP0.soac_m1       modp V(D,S): LEAVING@  0us ;
SOAC: I0.I1.MP0.soac_m1       modp V(D,B): LEAVING@  0us ;
SOAC: I0.I2.MP0.soac_m1       modp V(D,S): LEAVING@  0us ;
SOAC: I0.I2.MP0.soac_m1       modp V(D,B): LEAVING@  0us ;
SOAC: I0.I3.MP0.soac_m1       modp V(D,S): LEAVING@  0us ;
SOAC: I0.I3.MP0.soac_m1       modp V(D,B): LEAVING@  0us ;
    tran: time = 1.028 ms    (2.57 %), step = 47.82 us     (120 m%)
    tran: time = 3.041 ms     (7.6 %), step = 46.94 us     (117 m%)
    tran: time = 5.008 ms    (12.5 %), step = 49.59 us     (124 m%)
    tran: time = 7.021 ms    (17.6 %), step = 48.37 us     (121 m%)
    tran: time = 9.035 ms    (22.6 %), step = 47.36 us     (118 m%)
    tran: time = 11 ms       (27.5 %), step = 50 us        (125 m%)
    tran: time = 13.01 ms    (32.5 %), step = 48.97 us     (122 m%)
    tran: time = 15.03 ms    (37.6 %), step = 47.85 us     (120 m%)
    tran: time = 17.04 ms    (42.6 %), step = 46.96 us     (117 m%)
    tran: time = 19.01 ms    (47.5 %), step = 49.63 us     (124 m%)
    tran: time = 21.02 ms    (52.6 %), step = 48.41 us     (121 m%)
    tran: time = 23.03 ms    (57.6 %), step = 47.39 us     (118 m%)
    tran: time = 25 ms       (62.5 %), step = 50 us        (125 m%)
    tran: time = 27.01 ms    (67.5 %), step = 49.01 us     (123 m%)
    tran: time = 29.03 ms    (72.6 %), step = 47.88 us     (120 m%)
    tran: time = 31.04 ms    (77.6 %), step = 46.99 us     (117 m%)
    tran: time = 33.01 ms    (82.5 %), step = 49.68 us     (124 m%)
    tran: time = 35.02 ms    (87.6 %), step = 48.45 us     (121 m%)
    tran: time = 37.03 ms    (92.6 %), step = 47.42 us     (119 m%)
    tran: time = 39 ms       (97.5 %), step = 50 us        (125 m%)
Number of accepted tran steps =             851

Maximum value achieved for any signal of each quantity: 
V: V(net2) = 3.63 V
I: I(V0:p) = 6.558 uA
Maximum value of each quantity, excluding Verilog-A modules or dangling current sources:
V: V(vout_filt) = 1.613 V
I: I(V0:p) = 6.558 uA

~~~~~~~~~~~~~~~~~~~~~~~~~~~~~~~~~
Post-Transient Simulation Summary
~~~~~~~~~~~~~~~~~~~~~~~~~~~~~~~~~
   -   To further speed up simulation, consider
          add ++aps on command line
   -   Non-default settings that could significantly slow down simulation
          errpreset = conservative, default moderate
          reltol = 10e-06, default 100e-06 (conservative)
~~~~~~~~~~~~~~~~~~~~~~~~~~~~~~~~~


During simulation, the CPU load for active processors is :
         0 (12.0 %)      1 (66.3 %)      2 (30.1 %)      3 (35.9 %)
         4 (40.3 %)      5 (12.9 %)      6 (100.0 %)     7 (2.4 %)
         8 (16.9 %)      9 (3.2 %)      10 (3.2 %)      11 (13.5 %)
        12 (12.6 %)     13 (2.9 %)      14 (86.6 %)     15 (4.9 %)
        16 (1.2 %)      17 (99.8 %)     18 (15.6 %)     19 (4.1 %)
        20 (42.9 %)     21 (3.6 %)      22 (12.1 %)     23 (7.0 %)
        24 (6.1 %)      25 (27.2 %)     26 (5.1 %)      27 (6.8 %)
        28 (4.4 %)      29 (4.3 %)      30 (99.8 %)     31 (4.6 %)
        32 (22.7 %)     33 (65.8 %)     34 (13.3 %)     35 (3.6 %)
        36 (100.0 %)    37 (4.6 %)      38 (54.3 %)     39 (22.7 %)
        40 (13.1 %)     41 (18.7 %)     42 (45.0 %)     43 (6.6 %)
        44 (6.0 %)      45 (4.4 %)      46 (17.8 %)     47 (2.9 %)
        Total: 1190.0%
Initial condition solution time: CPU = 2.891 ms, elapsed = 2.89416 ms.
Intrinsic tran analysis time:    CPU = 510.778 ms, elapsed = 512.127 ms.

Opening the PSF file ../psf/mc1_separate/004/tranViolations.violations ...
Total time required for tran analysis `tran': CPU = 518.869 ms, elapsed = 523.348 ms, util. = 99.1%.
Time accumulated: CPU = 3.43055 s, elapsed = 4.38782 s.
Peak resident memory used = 214 Mbytes.


Notice from spectre during transient analysis `tran', during Monte Carlo analysis `mc1'.
    34 warnings suppressed.

finalTimeOP: writing operating point information to rawfile.

Opening the PSF file ../psf/mc1_separate/004/finalTimeOP.info ...
modelParameter: writing model parameter values to rawfile.

Opening the PSF file ../psf/mc1_separate/004/modelParameter.info ...
element: writing instance parameter values to rawfile.

Opening the PSF file ../psf/mc1_separate/004/element.info ...
outputParameter: writing output parameter values to rawfile.

Opening the PSF file ../psf/mc1_separate/004/outputParameter.info ...
designParamVals: writing netlist parameters to rawfile.

Opening the PSFASCII file ../psf/mc1_separate/004/designParamVals.info ...
primitives: writing primitives to rawfile.

Opening the PSFASCII file ../psf/mc1_separate/004/primitives.info.primitives ...
subckts: writing subcircuits to rawfile.

Opening the PSFASCII file ../psf/mc1_separate/004/subckts.info.subckts ...
    mc1: iteration = 4           (6.12 %), step = 1            (2.04 %)
5   8.16% 

*****************************************************************************************
* 
* INFO: AMS_processOption = C35B4C3
* 
* INFO: Valid Modules  PIP VG5 HIRES
* 
*****************************************************************************************


******************
DC Analysis `dcOp'
******************

Opening the PSF file ../psf/mc1_separate/005/dcOp.dc ...
Important parameter values:
    reltol = 100e-06
    abstol(V) = 1 uV
    abstol(I) = 1 pA
    temp = -40 C
    tnom = 27 C
    tempeffects = all
    gmindc = 1 pS
    rabsshort = 1 mOhm

Notice from spectre during DC analysis `dcOp', during Monte Carlo analysis `mc1'.
    GminDC = 1 pS is large enough to noticeably affect the DC solution.
        dV(vout) = -224.056 uV
        Use the `gmin_check' option to eliminate or expand this report.
    Bad pivoting is found during DC analysis. Option dc_pivot_check=yes is recommended for possible improvement of convergence.
SOAC: I0.I5.MP0.soac_m1       modp V(D,S): LEAVING@  0us ;
SOAC: I0.I5.MP0.soac_m1       modp V(D,B): LEAVING@  0us ;
SOAC: I0.I1.MP0.soac_m1       modp V(D,S): LEAVING@  0us ;
SOAC: I0.I1.MP0.soac_m1       modp V(D,B): LEAVING@  0us ;
SOAC: I0.I2.MP0.soac_m1       modp V(D,S): LEAVING@  0us ;
SOAC: I0.I2.MP0.soac_m1       modp V(D,B): LEAVING@  0us ;
SOAC: I0.I3.MP0.soac_m1       modp V(D,S): LEAVING@  0us ;
SOAC: I0.I3.MP0.soac_m1       modp V(D,B): LEAVING@  0us ;

Maximum value achieved for any signal of each quantity: 
V: V(net2) = 3.63 V
I: I(V0:p) = 6.437 uA
Maximum value of each quantity, excluding Verilog-A modules or dangling current sources:
V: V(vout_filt) = 1.601 V
I: I(V0:p) = 6.437 uA

Warning from spectre during check, during DC analysis `dcOp', during Monte Carlo analysis `mc1'.
    WARNING (CMI-2943): Parameter checks have been ignored because the valid value for parameter 'trise' could not be found in 'C1'.
    WARNING (CMI-2943): Parameter checks have been ignored because the valid value for parameter 'trise' could not be found in 'I0.R2.CM'.
    WARNING (CMI-2943): Parameter checks have been ignored because the valid value for parameter 'trise' could not be found in 'I0.R2.CS1'.
    WARNING (CMI-2943): Parameter checks have been ignored because the valid value for parameter 'trise' could not be found in 'I0.R2.CS0'.
    WARNING (CMI-2943): Parameter checks have been ignored because the valid value for parameter 'trise' could not be found in 'I0.C8<3>.C1'.
        Further occurrences of this warning will be suppressed.

Convergence achieved in 19 iterations.

Opening the PSF file ../psf/mc1_separate/005/dcOpViolations.violations ...
DC simulation time: CPU = 8.441 ms, elapsed = 12.038 ms.
Total time required for dc analysis `dcOp': CPU = 8.968 ms, elapsed = 12.5649 ms, util. = 71.4%.
Time accumulated: CPU = 3.481 s, elapsed = 4.45394 s.
Peak resident memory used = 214 Mbytes.


Notice from spectre during Monte Carlo analysis `mc1'.
    34 warnings suppressed.

dcOpInfo: writing operating point information to rawfile.

Opening the PSF file ../psf/mc1_separate/005/dcOpInfo.info ...

************************************************
Transient Analysis `tran': time = (0 s -> 40 ms)
************************************************

Opening the PSF file ../psf/mc1_separate/005/tran.tran.tran ...

Notice from spectre during IC analysis, during transient analysis `tran', during Monte Carlo analysis `mc1'.
    GminDC = 1 pS is large enough to noticeably affect the DC solution.
        dV(vout) = -224.056 uV
        Use the `gmin_check' option to eliminate or expand this report.
    Bad pivoting is found during DC analysis. Option dc_pivot_check=yes is recommended for possible improvement of convergence.
Warning from spectre during check, during IC analysis, during transient analysis `tran', during Monte Carlo analysis `mc1'.
    WARNING (CMI-2943): Parameter checks have been ignored because the valid value for parameter 'trise' could not be found in 'C1'.
    WARNING (CMI-2943): Parameter checks have been ignored because the valid value for parameter 'trise' could not be found in 'I0.R2.CM'.
    WARNING (CMI-2943): Parameter checks have been ignored because the valid value for parameter 'trise' could not be found in 'I0.R2.CS1'.
    WARNING (CMI-2943): Parameter checks have been ignored because the valid value for parameter 'trise' could not be found in 'I0.R2.CS0'.
    WARNING (CMI-2943): Parameter checks have been ignored because the valid value for parameter 'trise' could not be found in 'I0.C8<3>.C1'.
        Further occurrences of this warning will be suppressed.

Convergence achieved in 19 iterations.
DC simulation time: CPU = 3.035 ms, elapsed = 3.03507 ms.
Important parameter values:
    start = 0 s
    outputstart = 0 s
    stop = 40 ms
    step = 40 us
    maxstep = 400 us
    ic = all
    useprevic = no
    skipdc = no
    reltol = 10e-06
    abstol(V) = 1 uV
    abstol(I) = 1 pA
    temp = -40 C
    tnom = 27 C
    tempeffects = all
    errpreset = conservative
    method = gear2only
    lteratio = 10
    relref = alllocal
    cmin = 0 F
    gmin = 1 pS
    rabsshort = 1 mOhm


Notice from spectre during transient analysis `tran', during Monte Carlo analysis `mc1'.
    Multithreading is disabled due to the size of the design being too small.


Output and IC/nodeset summary:
                 save   8       (current)
                 save   87      (voltage)

SOAC: I0.I5.MP0.soac_m1       modp V(D,S): LEAVING@  0us ;
SOAC: I0.I5.MP0.soac_m1       modp V(D,B): LEAVING@  0us ;
SOAC: I0.I1.MP0.soac_m1       modp V(D,S): LEAVING@  0us ;
SOAC: I0.I1.MP0.soac_m1       modp V(D,B): LEAVING@  0us ;
SOAC: I0.I2.MP0.soac_m1       modp V(D,S): LEAVING@  0us ;
SOAC: I0.I2.MP0.soac_m1       modp V(D,B): LEAVING@  0us ;
SOAC: I0.I3.MP0.soac_m1       modp V(D,S): LEAVING@  0us ;
SOAC: I0.I3.MP0.soac_m1       modp V(D,B): LEAVING@  0us ;
    tran: time = 1.028 ms    (2.57 %), step = 47.87 us     (120 m%)
    tran: time = 3.041 ms     (7.6 %), step = 46.95 us     (117 m%)
    tran: time = 5.009 ms    (12.5 %), step = 49.56 us     (124 m%)
    tran: time = 7.022 ms    (17.6 %), step = 48.32 us     (121 m%)
    tran: time = 9.036 ms    (22.6 %), step = 47.3 us      (118 m%)
    tran: time = 11 ms       (27.5 %), step = 50 us        (125 m%)
    tran: time = 13.02 ms    (32.5 %), step = 48.8 us      (122 m%)
    tran: time = 15.03 ms    (37.6 %), step = 47.67 us     (119 m%)
    tran: time = 17.04 ms    (42.6 %), step = 46.8 us      (117 m%)
    tran: time = 19.01 ms    (47.5 %), step = 49.31 us     (123 m%)
    tran: time = 21.02 ms    (52.6 %), step = 48.1 us      (120 m%)
    tran: time = 23.04 ms    (57.6 %), step = 47.13 us     (118 m%)
    tran: time = 25.01 ms    (62.5 %), step = 49.87 us     (125 m%)
    tran: time = 27.02 ms    (67.5 %), step = 48.57 us     (121 m%)
    tran: time = 29.03 ms    (72.6 %), step = 47.5 us      (119 m%)
    tran: time = 31.05 ms    (77.6 %), step = 46.66 us     (117 m%)
    tran: time = 33.01 ms    (82.5 %), step = 49.07 us     (123 m%)
    tran: time = 35.03 ms    (87.6 %), step = 47.9 us      (120 m%)
    tran: time = 37.04 ms    (92.6 %), step = 46.98 us     (117 m%)
    tran: time = 39.01 ms    (97.5 %), step = 49.61 us     (124 m%)
Number of accepted tran steps =             851

Maximum value achieved for any signal of each quantity: 
V: V(net2) = 3.63 V
I: I(V0:p) = 6.438 uA
Maximum value of each quantity, excluding Verilog-A modules or dangling current sources:
V: V(vout_filt) = 1.614 V
I: I(V0:p) = 6.438 uA

~~~~~~~~~~~~~~~~~~~~~~~~~~~~~~~~~
Post-Transient Simulation Summary
~~~~~~~~~~~~~~~~~~~~~~~~~~~~~~~~~
   -   To further speed up simulation, consider
          add ++aps on command line
   -   Non-default settings that could significantly slow down simulation
          errpreset = conservative, default moderate
          reltol = 10e-06, default 100e-06 (conservative)
~~~~~~~~~~~~~~~~~~~~~~~~~~~~~~~~~


During simulation, the CPU load for active processors is :
         0 (11.4 %)      1 (59.2 %)      2 (29.0 %)      3 (31.9 %)
         4 (47.5 %)      5 (11.7 %)      6 (100.0 %)     7 (2.4 %)
         8 (25.9 %)      9 (3.0 %)      10 (2.8 %)      11 (12.7 %)
        12 (11.7 %)     13 (2.8 %)      14 (88.2 %)     15 (4.3 %)
        16 (1.3 %)      17 (99.8 %)     18 (14.5 %)     19 (4.2 %)
        20 (49.4 %)     21 (4.0 %)      22 (10.6 %)     23 (7.9 %)
        24 (6.4 %)      25 (35.9 %)     26 (4.5 %)      27 (7.4 %)
        28 (4.0 %)      29 (3.8 %)      30 (99.8 %)     31 (4.0 %)
        32 (31.9 %)     33 (60.2 %)     34 (11.8 %)     35 (3.6 %)
        36 (100.0 %)    37 (10.7 %)     38 (59.7 %)     39 (27.8 %)
        40 (11.8 %)     41 (21.1 %)     42 (40.0 %)     43 (6.6 %)
        44 (5.5 %)      45 (4.5 %)      46 (21.7 %)     47 (2.6 %)
        Total: 1221.2%
Initial condition solution time: CPU = 3.065 ms, elapsed = 3.06702 ms.
Intrinsic tran analysis time:    CPU = 507.055 ms, elapsed = 508.626 ms.

Opening the PSF file ../psf/mc1_separate/005/tranViolations.violations ...
Total time required for tran analysis `tran': CPU = 514.951 ms, elapsed = 519.416 ms, util. = 99.1%.
Time accumulated: CPU = 4.00308 s, elapsed = 4.98284 s.
Peak resident memory used = 214 Mbytes.


Notice from spectre during transient analysis `tran', during Monte Carlo analysis `mc1'.
    34 warnings suppressed.

finalTimeOP: writing operating point information to rawfile.

Opening the PSF file ../psf/mc1_separate/005/finalTimeOP.info ...
modelParameter: writing model parameter values to rawfile.

Opening the PSF file ../psf/mc1_separate/005/modelParameter.info ...
element: writing instance parameter values to rawfile.

Opening the PSF file ../psf/mc1_separate/005/element.info ...
outputParameter: writing output parameter values to rawfile.

Opening the PSF file ../psf/mc1_separate/005/outputParameter.info ...
designParamVals: writing netlist parameters to rawfile.

Opening the PSFASCII file ../psf/mc1_separate/005/designParamVals.info ...
primitives: writing primitives to rawfile.

Opening the PSFASCII file ../psf/mc1_separate/005/primitives.info.primitives ...
subckts: writing subcircuits to rawfile.

Opening the PSFASCII file ../psf/mc1_separate/005/subckts.info.subckts ...
    mc1: iteration = 5           (8.16 %), step = 1            (2.04 %)
6  10.20% 

*****************************************************************************************
* 
* INFO: AMS_processOption = C35B4C3
* 
* INFO: Valid Modules  PIP VG5 HIRES
* 
*****************************************************************************************


******************
DC Analysis `dcOp'
******************

Opening the PSF file ../psf/mc1_separate/006/dcOp.dc ...
Important parameter values:
    reltol = 100e-06
    abstol(V) = 1 uV
    abstol(I) = 1 pA
    temp = -40 C
    tnom = 27 C
    tempeffects = all
    gmindc = 1 pS
    rabsshort = 1 mOhm

Notice from spectre during DC analysis `dcOp', during Monte Carlo analysis `mc1'.
    GminDC = 1 pS is large enough to noticeably affect the DC solution.
        dV(vout) = -223.837 uV
        Use the `gmin_check' option to eliminate or expand this report.
    Bad pivoting is found during DC analysis. Option dc_pivot_check=yes is recommended for possible improvement of convergence.
SOAC: I0.I5.MP0.soac_m1       modp V(D,S): LEAVING@  0us ;
SOAC: I0.I5.MP0.soac_m1       modp V(D,B): LEAVING@  0us ;
SOAC: I0.I1.MP0.soac_m1       modp V(D,S): LEAVING@  0us ;
SOAC: I0.I1.MP0.soac_m1       modp V(D,B): LEAVING@  0us ;
SOAC: I0.I2.MP0.soac_m1       modp V(D,S): LEAVING@  0us ;
SOAC: I0.I2.MP0.soac_m1       modp V(D,B): LEAVING@  0us ;
SOAC: I0.I3.MP0.soac_m1       modp V(D,S): LEAVING@  0us ;
SOAC: I0.I3.MP0.soac_m1       modp V(D,B): LEAVING@  0us ;

Maximum value achieved for any signal of each quantity: 
V: V(net2) = 3.63 V
I: I(V0:p) = 6.477 uA
Maximum value of each quantity, excluding Verilog-A modules or dangling current sources:
V: V(net1) = 1.6 V
I: I(V0:p) = 6.477 uA

Warning from spectre during check, during DC analysis `dcOp', during Monte Carlo analysis `mc1'.
    WARNING (CMI-2943): Parameter checks have been ignored because the valid value for parameter 'trise' could not be found in 'C1'.
    WARNING (CMI-2943): Parameter checks have been ignored because the valid value for parameter 'trise' could not be found in 'I0.R2.CM'.
    WARNING (CMI-2943): Parameter checks have been ignored because the valid value for parameter 'trise' could not be found in 'I0.R2.CS1'.
    WARNING (CMI-2943): Parameter checks have been ignored because the valid value for parameter 'trise' could not be found in 'I0.R2.CS0'.
    WARNING (CMI-2943): Parameter checks have been ignored because the valid value for parameter 'trise' could not be found in 'I0.C8<3>.C1'.
        Further occurrences of this warning will be suppressed.

Convergence achieved in 19 iterations.

Opening the PSF file ../psf/mc1_separate/006/dcOpViolations.violations ...
DC simulation time: CPU = 8.446 ms, elapsed = 12.152 ms.
Total time required for dc analysis `dcOp': CPU = 8.85 ms, elapsed = 12.557 ms, util. = 70.5%.
Time accumulated: CPU = 4.0499 s, elapsed = 5.04502 s.
Peak resident memory used = 214 Mbytes.


Notice from spectre during Monte Carlo analysis `mc1'.
    34 warnings suppressed.

dcOpInfo: writing operating point information to rawfile.

Opening the PSF file ../psf/mc1_separate/006/dcOpInfo.info ...

************************************************
Transient Analysis `tran': time = (0 s -> 40 ms)
************************************************

Opening the PSF file ../psf/mc1_separate/006/tran.tran.tran ...

Notice from spectre during IC analysis, during transient analysis `tran', during Monte Carlo analysis `mc1'.
    GminDC = 1 pS is large enough to noticeably affect the DC solution.
        dV(vout) = -223.837 uV
        Use the `gmin_check' option to eliminate or expand this report.
    Bad pivoting is found during DC analysis. Option dc_pivot_check=yes is recommended for possible improvement of convergence.
Warning from spectre during check, during IC analysis, during transient analysis `tran', during Monte Carlo analysis `mc1'.
    WARNING (CMI-2943): Parameter checks have been ignored because the valid value for parameter 'trise' could not be found in 'C1'.
    WARNING (CMI-2943): Parameter checks have been ignored because the valid value for parameter 'trise' could not be found in 'I0.R2.CM'.
    WARNING (CMI-2943): Parameter checks have been ignored because the valid value for parameter 'trise' could not be found in 'I0.R2.CS1'.
    WARNING (CMI-2943): Parameter checks have been ignored because the valid value for parameter 'trise' could not be found in 'I0.R2.CS0'.
    WARNING (CMI-2943): Parameter checks have been ignored because the valid value for parameter 'trise' could not be found in 'I0.C8<3>.C1'.
        Further occurrences of this warning will be suppressed.

Convergence achieved in 19 iterations.
DC simulation time: CPU = 2.966 ms, elapsed = 2.96712 ms.
Important parameter values:
    start = 0 s
    outputstart = 0 s
    stop = 40 ms
    step = 40 us
    maxstep = 400 us
    ic = all
    useprevic = no
    skipdc = no
    reltol = 10e-06
    abstol(V) = 1 uV
    abstol(I) = 1 pA
    temp = -40 C
    tnom = 27 C
    tempeffects = all
    errpreset = conservative
    method = gear2only
    lteratio = 10
    relref = alllocal
    cmin = 0 F
    gmin = 1 pS
    rabsshort = 1 mOhm


Notice from spectre during transient analysis `tran', during Monte Carlo analysis `mc1'.
    Multithreading is disabled due to the size of the design being too small.


Output and IC/nodeset summary:
                 save   8       (current)
                 save   87      (voltage)

SOAC: I0.I5.MP0.soac_m1       modp V(D,S): LEAVING@  0us ;
SOAC: I0.I5.MP0.soac_m1       modp V(D,B): LEAVING@  0us ;
SOAC: I0.I1.MP0.soac_m1       modp V(D,S): LEAVING@  0us ;
SOAC: I0.I1.MP0.soac_m1       modp V(D,B): LEAVING@  0us ;
SOAC: I0.I2.MP0.soac_m1       modp V(D,S): LEAVING@  0us ;
SOAC: I0.I2.MP0.soac_m1       modp V(D,B): LEAVING@  0us ;
SOAC: I0.I3.MP0.soac_m1       modp V(D,S): LEAVING@  0us ;
SOAC: I0.I3.MP0.soac_m1       modp V(D,B): LEAVING@  0us ;
    tran: time = 1.028 ms    (2.57 %), step = 47.82 us     (120 m%)
    tran: time = 3.042 ms     (7.6 %), step = 46.93 us     (117 m%)
[...]
V: V(net2) = 3.63 V
I: I(V0:p) = 6.515 uA
Maximum value of each quantity, excluding Verilog-A modules or dangling current sources:
V: V(vout_filt) = 1.6 V
I: I(V0:p) = 6.515 uA

Warning from spectre during check, during DC analysis `dcOp', during Monte Carlo analysis `mc1'.
    WARNING (CMI-2943): Parameter checks have been ignored because the valid value for parameter 'trise' could not be found in 'C1'.
    WARNING (CMI-2943): Parameter checks have been ignored because the valid value for parameter 'trise' could not be found in 'I0.R2.CM'.
    WARNING (CMI-2943): Parameter checks have been ignored because the valid value for parameter 'trise' could not be found in 'I0.R2.CS1'.
    WARNING (CMI-2943): Parameter checks have been ignored because the valid value for parameter 'trise' could not be found in 'I0.R2.CS0'.
    WARNING (CMI-2943): Parameter checks have been ignored because the valid value for parameter 'trise' could not be found in 'I0.C8<3>.C1'.
        Further occurrences of this warning will be suppressed.

Convergence achieved in 19 iterations.

Opening the PSF file ../psf/mc1_separate/049/dcOpViolations.violations ...
DC simulation time: CPU = 9.233 ms, elapsed = 13.5038 ms.
Total time required for dc analysis `dcOp': CPU = 9.789 ms, elapsed = 14.0588 ms, util. = 69.6%.
Time accumulated: CPU = 29.0644 s, elapsed = 31.0565 s.
Peak resident memory used = 215 Mbytes.


Notice from spectre during Monte Carlo analysis `mc1'.
    34 warnings suppressed.

dcOpInfo: writing operating point information to rawfile.

Opening the PSF file ../psf/mc1_separate/049/dcOpInfo.info ...

************************************************
Transient Analysis `tran': time = (0 s -> 40 ms)
************************************************

Opening the PSF file ../psf/mc1_separate/049/tran.tran.tran ...

Notice from spectre during IC analysis, during transient analysis `tran', during Monte Carlo analysis `mc1'.
    GminDC = 1 pS is large enough to noticeably affect the DC solution.
        dV(vout) = -224.009 uV
        Use the `gmin_check' option to eliminate or expand this report.
    Bad pivoting is found during DC analysis. Option dc_pivot_check=yes is recommended for possible improvement of convergence.
Warning from spectre during check, during IC analysis, during transient analysis `tran', during Monte Carlo analysis `mc1'.
    WARNING (CMI-2943): Parameter checks have been ignored because the valid value for parameter 'trise' could not be found in 'C1'.
    WARNING (CMI-2943): Parameter checks have been ignored because the valid value for parameter 'trise' could not be found in 'I0.R2.CM'.
    WARNING (CMI-2943): Parameter checks have been ignored because the valid value for parameter 'trise' could not be found in 'I0.R2.CS1'.
    WARNING (CMI-2943): Parameter checks have been ignored because the valid value for parameter 'trise' could not be found in 'I0.R2.CS0'.
    WARNING (CMI-2943): Parameter checks have been ignored because the valid value for parameter 'trise' could not be found in 'I0.C8<3>.C1'.
        Further occurrences of this warning will be suppressed.

Convergence achieved in 19 iterations.
DC simulation time: CPU = 3.239 ms, elapsed = 3.24106 ms.
Important parameter values:
    start = 0 s
    outputstart = 0 s
    stop = 40 ms
    step = 40 us
    maxstep = 400 us
    ic = all
    useprevic = no
    skipdc = no
    reltol = 10e-06
    abstol(V) = 1 uV
    abstol(I) = 1 pA
    temp = -40 C
    tnom = 27 C
    tempeffects = all
    errpreset = conservative
    method = gear2only
    lteratio = 10
    relref = alllocal
    cmin = 0 F
    gmin = 1 pS
    rabsshort = 1 mOhm


Notice from spectre during transient analysis `tran', during Monte Carlo analysis `mc1'.
    Multithreading is disabled due to the size of the design being too small.


Output and IC/nodeset summary:
                 save   8       (current)
                 save   87      (voltage)

SOAC: I0.I5.MP0.soac_m1       modp V(D,S): LEAVING@  0us ;
SOAC: I0.I5.MP0.soac_m1       modp V(D,B): LEAVING@  0us ;
SOAC: I0.I1.MP0.soac_m1       modp V(D,S): LEAVING@  0us ;
SOAC: I0.I1.MP0.soac_m1       modp V(D,B): LEAVING@  0us ;
SOAC: I0.I2.MP0.soac_m1       modp V(D,S): LEAVING@  0us ;
SOAC: I0.I2.MP0.soac_m1       modp V(D,B): LEAVING@  0us ;
SOAC: I0.I3.MP0.soac_m1       modp V(D,S): LEAVING@  0us ;
SOAC: I0.I3.MP0.soac_m1       modp V(D,B): LEAVING@  0us ;
    tran: time = 1.028 ms    (2.57 %), step = 47.83 us     (120 m%)
    tran: time = 3.042 ms     (7.6 %), step = 46.93 us     (117 m%)
    tran: time = 5.009 ms    (12.5 %), step = 49.54 us     (124 m%)
    tran: time = 7.022 ms    (17.6 %), step = 48.3 us      (121 m%)
    tran: time = 9.036 ms    (22.6 %), step = 47.29 us     (118 m%)
    tran: time = 11 ms       (27.5 %), step = 50 us        (125 m%)
    tran: time = 13.02 ms    (32.5 %), step = 48.81 us     (122 m%)
    tran: time = 15.03 ms    (37.6 %), step = 47.69 us     (119 m%)
    tran: time = 17.04 ms    (42.6 %), step = 46.82 us     (117 m%)
    tran: time = 19.01 ms    (47.5 %), step = 49.34 us     (123 m%)
    tran: time = 21.02 ms    (52.6 %), step = 48.14 us     (120 m%)
    tran: time = 23.04 ms    (57.6 %), step = 47.16 us     (118 m%)
    tran: time = 25.01 ms    (62.5 %), step = 49.94 us     (125 m%)
    tran: time = 27.02 ms    (67.5 %), step = 48.63 us     (122 m%)
    tran: time = 29.03 ms    (72.6 %), step = 47.55 us     (119 m%)
    tran: time = 31.05 ms    (77.6 %), step = 46.71 us     (117 m%)
    tran: time = 33.01 ms    (82.5 %), step = 49.16 us     (123 m%)
    tran: time = 35.03 ms    (87.6 %), step = 47.99 us     (120 m%)
    tran: time = 37.04 ms    (92.6 %), step = 47.05 us     (118 m%)
    tran: time = 39.01 ms    (97.5 %), step = 49.74 us     (124 m%)
Number of accepted tran steps =             851

Maximum value achieved for any signal of each quantity: 
V: V(net2) = 3.63 V
I: I(V0:p) = 6.515 uA
Maximum value of each quantity, excluding Verilog-A modules or dangling current sources:
V: V(vout_filt) = 1.614 V
I: I(V0:p) = 6.515 uA

~~~~~~~~~~~~~~~~~~~~~~~~~~~~~~~~~
Post-Transient Simulation Summary
~~~~~~~~~~~~~~~~~~~~~~~~~~~~~~~~~
   -   To further speed up simulation, consider
          add ++aps on command line
   -   Non-default settings that could significantly slow down simulation
          errpreset = conservative, default moderate
          reltol = 10e-06, default 100e-06 (conservative)
~~~~~~~~~~~~~~~~~~~~~~~~~~~~~~~~~


During simulation, the CPU load for active processors is :
         0 (23.1 %)      1 (29.8 %)      2 (17.3 %)      3 (53.5 %)
         4 (30.7 %)      5 (43.9 %)      6 (39.6 %)      7 (13.8 %)
         8 (19.6 %)      9 (7.6 %)      10 (22.9 %)     11 (64.5 %)
        12 (14.2 %)     13 (7.4 %)      14 (41.7 %)     15 (18.7 %)
        16 (58.7 %)     17 (88.2 %)     18 (8.7 %)      19 (25.3 %)
        20 (27.5 %)     21 (9.1 %)      22 (9.8 %)      23 (22.1 %)
        24 (15.0 %)     25 (37.2 %)     26 (19.2 %)     27 (9.3 %)
        28 (33.1 %)     29 (24.4 %)     30 (61.9 %)     31 (47.1 %)
        32 (26.1 %)     33 (23.6 %)     34 (10.4 %)     35 (17.4 %)
        36 (55.1 %)     37 (27.7 %)     38 (52.9 %)     39 (83.5 %)
        40 (19.1 %)     41 (33.9 %)     42 (24.6 %)     43 (22.7 %)
        44 (20.6 %)     45 (7.0 %)      46 (15.2 %)     47 (19.3 %)
        Total: 1403.8%
Initial condition solution time: CPU = 3.305 ms, elapsed = 3.30615 ms.
Intrinsic tran analysis time:    CPU = 519.774 ms, elapsed = 522.259 ms.

Opening the PSF file ../psf/mc1_separate/049/tranViolations.violations ...
Total time required for tran analysis `tran': CPU = 528.543 ms, elapsed = 534.849 ms, util. = 98.8%.
Time accumulated: CPU = 29.6004 s, elapsed = 31.6017 s.
Peak resident memory used = 215 Mbytes.


Notice from spectre during transient analysis `tran', during Monte Carlo analysis `mc1'.
    34 warnings suppressed.

finalTimeOP: writing operating point information to rawfile.

Opening the PSF file ../psf/mc1_separate/049/finalTimeOP.info ...
modelParameter: writing model parameter values to rawfile.

Opening the PSF file ../psf/mc1_separate/049/modelParameter.info ...
element: writing instance parameter values to rawfile.

Opening the PSF file ../psf/mc1_separate/049/element.info ...
outputParameter: writing output parameter values to rawfile.

Opening the PSF file ../psf/mc1_separate/049/outputParameter.info ...
designParamVals: writing netlist parameters to rawfile.

Opening the PSFASCII file ../psf/mc1_separate/049/designParamVals.info ...
primitives: writing primitives to rawfile.

Opening the PSFASCII file ../psf/mc1_separate/049/primitives.info.primitives ...
subckts: writing subcircuits to rawfile.

Opening the PSFASCII file ../psf/mc1_separate/049/subckts.info.subckts ...
    mc1: iteration = 49            (98 %), step = 1            (2.04 %)
50 100.00% 

*****************************************************************************************
* 
* INFO: AMS_processOption = C35B4C3
* 
* INFO: Valid Modules  PIP VG5 HIRES
* 
*****************************************************************************************


******************
DC Analysis `dcOp'
******************

Opening the PSF file ../psf/mc1_separate/050/dcOp.dc ...
Important parameter values:
    reltol = 100e-06
    abstol(V) = 1 uV
    abstol(I) = 1 pA
    temp = -40 C
    tnom = 27 C
    tempeffects = all
    gmindc = 1 pS
    rabsshort = 1 mOhm

Notice from spectre during DC analysis `dcOp', during Monte Carlo analysis `mc1'.
    GminDC = 1 pS is large enough to noticeably affect the DC solution.
        dV(vout) = -224.088 uV
        Use the `gmin_check' option to eliminate or expand this report.
    Bad pivoting is found during DC analysis. Option dc_pivot_check=yes is recommended for possible improvement of convergence.
SOAC: I0.I5.MP0.soac_m1       modp V(D,S): LEAVING@  0us ;
SOAC: I0.I5.MP0.soac_m1       modp V(D,B): LEAVING@  0us ;
SOAC: I0.I1.MP0.soac_m1       modp V(D,S): LEAVING@  0us ;
SOAC: I0.I1.MP0.soac_m1       modp V(D,B): LEAVING@  0us ;
SOAC: I0.I2.MP0.soac_m1       modp V(D,S): LEAVING@  0us ;
SOAC: I0.I2.MP0.soac_m1       modp V(D,B): LEAVING@  0us ;
SOAC: I0.I3.MP0.soac_m1       modp V(D,S): LEAVING@  0us ;
SOAC: I0.I3.MP0.soac_m1       modp V(D,B): LEAVING@  0us ;

Maximum value achieved for any signal of each quantity: 
V: V(net2) = 3.63 V
I: I(V0:p) = 6.45 uA
Maximum value of each quantity, excluding Verilog-A modules or dangling current sources:
V: V(vout_filt) = 1.601 V
I: I(V0:p) = 6.45 uA

Warning from spectre during check, during DC analysis `dcOp', during Monte Carlo analysis `mc1'.
    WARNING (CMI-2943): Parameter checks have been ignored because the valid value for parameter 'trise' could not be found in 'C1'.
    WARNING (CMI-2943): Parameter checks have been ignored because the valid value for parameter 'trise' could not be found in 'I0.R2.CM'.
    WARNING (CMI-2943): Parameter checks have been ignored because the valid value for parameter 'trise' could not be found in 'I0.R2.CS1'.
    WARNING (CMI-2943): Parameter checks have been ignored because the valid value for parameter 'trise' could not be found in 'I0.R2.CS0'.
    WARNING (CMI-2943): Parameter checks have been ignored because the valid value for parameter 'trise' could not be found in 'I0.C8<3>.C1'.
        Further occurrences of this warning will be suppressed.

Convergence achieved in 19 iterations.

Opening the PSF file ../psf/mc1_separate/050/dcOpViolations.violations ...
DC simulation time: CPU = 10.037 ms, elapsed = 14.596 ms.
Total time required for dc analysis `dcOp': CPU = 10.797 ms, elapsed = 15.3549 ms, util. = 70.3%.
Time accumulated: CPU = 29.6514 s, elapsed = 31.6686 s.
Peak resident memory used = 215 Mbytes.


Notice from spectre during Monte Carlo analysis `mc1'.
    34 warnings suppressed.

dcOpInfo: writing operating point information to rawfile.

Opening the PSF file ../psf/mc1_separate/050/dcOpInfo.info ...

************************************************
Transient Analysis `tran': time = (0 s -> 40 ms)
************************************************

Opening the PSF file ../psf/mc1_separate/050/tran.tran.tran ...

Notice from spectre during IC analysis, during transient analysis `tran', during Monte Carlo analysis `mc1'.
    GminDC = 1 pS is large enough to noticeably affect the DC solution.
        dV(vout) = -224.088 uV
        Use the `gmin_check' option to eliminate or expand this report.
    Bad pivoting is found during DC analysis. Option dc_pivot_check=yes is recommended for possible improvement of convergence.
Warning from spectre during check, during IC analysis, during transient analysis `tran', during Monte Carlo analysis `mc1'.
    WARNING (CMI-2943): Parameter checks have been ignored because the valid value for parameter 'trise' could not be found in 'C1'.
    WARNING (CMI-2943): Parameter checks have been ignored because the valid value for parameter 'trise' could not be found in 'I0.R2.CM'.
    WARNING (CMI-2943): Parameter checks have been ignored because the valid value for parameter 'trise' could not be found in 'I0.R2.CS1'.
    WARNING (CMI-2943): Parameter checks have been ignored because the valid value for parameter 'trise' could not be found in 'I0.R2.CS0'.
    WARNING (CMI-2943): Parameter checks have been ignored because the valid value for parameter 'trise' could not be found in 'I0.C8<3>.C1'.
        Further occurrences of this warning will be suppressed.

Convergence achieved in 19 iterations.
DC simulation time: CPU = 3.271 ms, elapsed = 3.27921 ms.
Important parameter values:
    start = 0 s
    outputstart = 0 s
    stop = 40 ms
    step = 40 us
    maxstep = 400 us
    ic = all
    useprevic = no
    skipdc = no
    reltol = 10e-06
    abstol(V) = 1 uV
    abstol(I) = 1 pA
    temp = -40 C
    tnom = 27 C
    tempeffects = all
    errpreset = conservative
    method = gear2only
    lteratio = 10
    relref = alllocal
    cmin = 0 F
    gmin = 1 pS
    rabsshort = 1 mOhm


Notice from spectre during transient analysis `tran', during Monte Carlo analysis `mc1'.
    Multithreading is disabled due to the size of the design being too small.


Output and IC/nodeset summary:
                 save   8       (current)
                 save   87      (voltage)

SOAC: I0.I5.MP0.soac_m1       modp V(D,S): LEAVING@  0us ;
SOAC: I0.I5.MP0.soac_m1       modp V(D,B): LEAVING@  0us ;
SOAC: I0.I1.MP0.soac_m1       modp V(D,S): LEAVING@  0us ;
SOAC: I0.I1.MP0.soac_m1       modp V(D,B): LEAVING@  0us ;
SOAC: I0.I2.MP0.soac_m1       modp V(D,S): LEAVING@  0us ;
SOAC: I0.I2.MP0.soac_m1       modp V(D,B): LEAVING@  0us ;
SOAC: I0.I3.MP0.soac_m1       modp V(D,S): LEAVING@  0us ;
SOAC: I0.I3.MP0.soac_m1       modp V(D,B): LEAVING@  0us ;
    tran: time = 1.028 ms    (2.57 %), step = 47.83 us     (120 m%)
    tran: time = 3.042 ms    (7.61 %), step = 46.92 us     (117 m%)
    tran: time = 5.009 ms    (12.5 %), step = 49.5 us      (124 m%)
    tran: time = 7.023 ms    (17.6 %), step = 48.26 us     (121 m%)
    tran: time = 9.037 ms    (22.6 %), step = 47.24 us     (118 m%)
    tran: time = 11 ms       (27.5 %), step = 50 us        (125 m%)
    tran: time = 13.02 ms    (32.5 %), step = 48.71 us     (122 m%)
    tran: time = 15.03 ms    (37.6 %), step = 47.6 us      (119 m%)
    tran: time = 17.05 ms    (42.6 %), step = 46.74 us     (117 m%)
    tran: time = 19.01 ms    (47.5 %), step = 49.2 us      (123 m%)
    tran: time = 21.03 ms    (52.6 %), step = 48.01 us     (120 m%)
    tran: time = 23.04 ms    (57.6 %), step = 47.05 us     (118 m%)
    tran: time = 25.01 ms    (62.5 %), step = 49.73 us     (124 m%)
    tran: time = 27.02 ms    (67.6 %), step = 48.45 us     (121 m%)
    tran: time = 29.03 ms    (72.6 %), step = 47.39 us     (118 m%)
    tran: time = 31 ms       (77.5 %), step = 50 us        (125 m%)
    tran: time = 33.02 ms    (82.5 %), step = 48.91 us     (122 m%)
    tran: time = 35.03 ms    (87.6 %), step = 47.76 us     (119 m%)
    tran: time = 37.04 ms    (92.6 %), step = 46.87 us     (117 m%)
    tran: time = 39.01 ms    (97.5 %), step = 49.41 us     (124 m%)
Number of accepted tran steps =             851

Maximum value achieved for any signal of each quantity: 
V: V(net2) = 3.63 V
I: I(V0:p) = 6.45 uA
Maximum value of each quantity, excluding Verilog-A modules or dangling current sources:
V: V(vout_filt) = 1.614 V
I: I(V0:p) = 6.45 uA

~~~~~~~~~~~~~~~~~~~~~~~~~~~~~~~~~
Post-Transient Simulation Summary
~~~~~~~~~~~~~~~~~~~~~~~~~~~~~~~~~
   -   To further speed up simulation, consider
          add ++aps on command line
   -   Non-default settings that could significantly slow down simulation
          errpreset = conservative, default moderate
          reltol = 10e-06, default 100e-06 (conservative)
~~~~~~~~~~~~~~~~~~~~~~~~~~~~~~~~~


During simulation, the CPU load for active processors is :
         0 (24.0 %)      1 (29.9 %)      2 (17.2 %)      3 (54.3 %)
         4 (31.9 %)      5 (43.2 %)      6 (39.3 %)      7 (13.9 %)
         8 (19.4 %)      9 (7.8 %)      10 (22.5 %)     11 (63.8 %)
        12 (14.3 %)     13 (7.4 %)      14 (41.0 %)     15 (18.5 %)
        16 (57.7 %)     17 (88.5 %)     18 (8.6 %)      19 (24.9 %)
        20 (27.0 %)     21 (10.7 %)     22 (9.7 %)      23 (23.6 %)
        24 (14.8 %)     25 (36.7 %)     26 (19.0 %)     27 (9.2 %)
        28 (32.5 %)     29 (25.5 %)     30 (60.8 %)     31 (48.1 %)
        32 (25.7 %)     33 (23.2 %)     34 (10.2 %)     35 (17.1 %)
        36 (54.2 %)     37 (27.2 %)     38 (51.9 %)     39 (83.8 %)
        40 (18.7 %)     41 (33.4 %)     42 (24.3 %)     43 (24.2 %)
        44 (20.3 %)     45 (6.9 %)      46 (15.1 %)     47 (19.0 %)
        Total: 1401.0%
Initial condition solution time: CPU = 3.312 ms, elapsed = 3.32212 ms.
Intrinsic tran analysis time:    CPU = 520.658 ms, elapsed = 522.473 ms.

Opening the PSF file ../psf/mc1_separate/050/tranViolations.violations ...
Total time required for tran analysis `tran': CPU = 529.654 ms, elapsed = 535.196 ms, util. = 99%.
Time accumulated: CPU = 30.189 s, elapsed = 32.2144 s.
Peak resident memory used = 215 Mbytes.


Notice from spectre during transient analysis `tran', during Monte Carlo analysis `mc1'.
    34 warnings suppressed.

finalTimeOP: writing operating point information to rawfile.

Opening the PSF file ../psf/mc1_separate/050/finalTimeOP.info ...
modelParameter: writing model parameter values to rawfile.

Opening the PSF file ../psf/mc1_separate/050/modelParameter.info ...
element: writing instance parameter values to rawfile.

Opening the PSF file ../psf/mc1_separate/050/element.info ...
outputParameter: writing output parameter values to rawfile.

Opening the PSF file ../psf/mc1_separate/050/outputParameter.info ...
designParamVals: writing netlist parameters to rawfile.

Opening the PSFASCII file ../psf/mc1_separate/050/designParamVals.info ...
primitives: writing primitives to rawfile.

Opening the PSFASCII file ../psf/mc1_separate/050/primitives.info.primitives ...
subckts: writing subcircuits to rawfile.

Opening the PSFASCII file ../psf/mc1_separate/050/subckts.info.subckts ...
    mc1: iteration = 50           (100 %), step = 1            (2.04 %)
Total time required for montecarlo analysis `mc1': CPU = 29.7654 s, elapsed = 30.9531 s, util. = 96.2%.
Time accumulated: CPU = 30.219 s, elapsed = 32.2575 s.
Peak resident memory used = 215 Mbytes.

Licensing Information:
Lic Summary:
[09:06:52.140752] Cdslmd servers:3000@lic08.ug.kth.se:29000@lic06.ug.kth.se
[09:06:52.140793] Feature usage summary:
[09:06:52.140794] Virtuoso_Multi_mode_Simulation


Aggregate audit (9:06:52 AM, Thur Apr 16, 2026):
Time used: CPU = 30.2 s, elapsed = 32.3 s, util. = 93.7%.
Time spent in licensing: elapsed = 51.5 ms.
Peak memory used = 215 Mbytes.
Simulation started at: 9:06:19 AM, Thur Apr 16, 2026, ended at: 9:06:52 AM, Thur Apr 16, 2026, with elapsed time (wall clock): 32.3 s.
spectre completes with 0 errors, 527 warnings, and 364 notices.
