
Spectre (R) Circuit Simulator
Version 24.1.0.288.isr5 64bit -- 3 Apr 2025
Copyright (C) 1989-2025 Cadence Design Systems, Inc. All rights reserved worldwide. Cadence and Spectre are registered trademarks of Cadence Design Systems, Inc. All others are the property of their respective holders.

Includes RSA BSAFE(R) Cryptographic or Security Protocol Software from RSA Security, Inc.

User: davidevi   Host: il2244vt26_davidevi   HostID: 11AC2C00   PID: 1038034
Memory  available: 3.0375 TB  physical: 3.2467 TB
Linux   : Rocky Linux release 8.10 (Green Obsidian)
CPU Type: Intel(R) Xeon(R) CPU E7-8857 v2 @ 3.00GHz
        Socket: Processors [Frequency]
        0:       0 [3600.0],  1 [3600.0],  2 [1200.0],  3 [2500.0],  4 [2999.9]
                 5 [1200.0],  6 [3300.0],  7 [2999.9],  8 [3600.0],  9 [3000.0]
                10 [2500.0], 11 [2500.0]
        1:      12 [1200.0], 13 [3100.0], 14 [2999.9], 15 [2999.9], 16 [3600.0]
                17 [3600.0], 18 [2891.5], 19 [3100.0], 20 [3500.0], 21 [2700.0]
                22 [1200.0], 23 [3500.0]
        2:      24 [3600.0], 25 [3600.0], 26 [3600.0], 27 [1200.0], 28 [1200.0]
                29 [1200.0], 30 [3300.0], 31 [1200.0], 32 [3200.0], 33 [1200.0]
                34 [2999.9], 35 [1200.0]
        3:      36 [3600.0], 37 [2999.9], 38 [3400.0], 39 [2999.9], 40 [2500.0]
                41 [2500.0], 42 [2600.0], 43 [1200.0], 44 [2800.0], 45 [2500.0]
                46 [2999.9], 47 [1200.0]
        
System load averages (1min, 5min, 15min) : 13.9 %, 17.1 %, 16.2 %
HPC is enabled


Simulating `input.scs' on il2244vt26_davidevi at 8:27:58 AM, Thur Apr 16, 2026 (process id: 1038034).
Current working directory: /home/davidevi/Desktop/myproject/Sim/VGA/VGA_1_tb/adexl/results/data/MonteCarlo.2/14/xf_MC/groupRunDataDir/netlist
Command line:
    /opt/tools/cadence/installs/SPECTRE241/tools/bin/spectre -64  \
        input.scs +escchars +log ../psf/spectre.out -format psfbin  \
        +rtsf -raw ../psf +aps +mt +lqtimeout 900 -maxw 5 -maxn 5  \
        +param /opt/pdk/ams/410/spectre/ams_range.lmts -env ade  \
        -ahdllibdir  \
        /home/davidevi/Desktop/myproject/Sim/VGA/VGA_1_tb/adexl/results/data/MonteCarlo.2/sharedData/Job466/ahdl/input.ahdlSimDB  \
        +logstatus  \
        +adespetkn=0001089D13A302B663E41FB550AF0DF415A679A322D5069144BF588C12F604E07EF416DC01A319B562BB63D35BF91DB045A354DB0CBA10A17CF350E179C04F9272E279D15D9175FF34986BDD0AF002BA50FD7FD707E002A700AC1C861FFB41E60EAB79D12CF874D3349879D118F874D3349810318574E95F5D7800003682

Simulation Id: icp0eaHkdrZyoJFz
Licensing Information:
[08:27:58.121842] Configured Lic search path (24.01-s002): 3000@lic08.ug.kth.se:29000@lic06.ug.kth.se

Licensing Information:
[08:27:58.053451] Periodic Lic check successful

Loading /opt/tools/cadence/installs/SPECTRE241/tools.lnx86/cmi/lib/64bit/5.0/libinfineon_sh.so ...
Loading /opt/tools/cadence/installs/SPECTRE241/tools.lnx86/cmi/lib/64bit/5.0/libphilips_I_sh.so ...
Loading /opt/tools/cadence/installs/SPECTRE241/tools.lnx86/cmi/lib/64bit/5.0/libphilips_sh.so ...
Loading /opt/tools/cadence/installs/SPECTRE241/tools.lnx86/cmi/lib/64bit/5.0/libsparam_sh.so ...
Loading /opt/tools/cadence/installs/SPECTRE241/tools.lnx86/cmi/lib/64bit/5.0/libstmodels_sh.so ...

Warning from spectre.
    WARNING (SPECTRE-691): This CPU processor does not support x86 advanced vector extensions instructions. This may affect math operations and slow down the simulation.

Reading file:  /home/davidevi/Desktop/myproject/Sim/VGA/VGA_1_tb/adexl/results/data/MonteCarlo.2/14/xf_MC/groupRunDataDir/netlist/input.scs
Reading file:  /opt/pdk/ams/410/spectre/ams_range.lmts

Warning from spectre during read of parameter soft limits file `/opt/pdk/ams/410/spectre/ams_range.lmts', during circuit read-in.
    WARNING (SPECTRE-8360): line 1511: `ac' is an undefined primitive device.
    WARNING (SPECTRE-8360): line 1512: `ac' is an undefined primitive device.
    WARNING (SPECTRE-8360): line 1513: `ac' is an undefined primitive device.
    WARNING (SPECTRE-8360): line 1514: `ac' is an undefined primitive device.
    WARNING (SPECTRE-8360): line 1515: `ac' is an undefined primitive device.
        Further occurrences of this warning will be suppressed.

Reading file:  /opt/tools/cadence/installs/SPECTRE241/tools.lnx86/spectre/etc/configs/spectre.cfg
Reading file:  /opt/pdk/ams/410/spectre/c35/soac/soac.scs
Reading file:  /opt/pdk/ams/410/spectre/c35/processOption.scs
Reading file:  /opt/pdk/ams/410/spectre/c35/process.scs
Reading file:  /opt/pdk/ams/410/spectre/c35/processOption/C35B4C3.scs
Reading file:  /opt/pdk/ams/410/spectre/c35/cmos53.scs
Reading file:  /opt/pdk/ams/410/spectre/c35/res.scs
Reading file:  /opt/pdk/ams/410/spectre/c35/cap.scs
Reading file:  /opt/pdk/ams/410/spectre/c35/bip.scs
Reading file:  /opt/pdk/ams/410/spectre/c35/ind.scs
Reading file:  /opt/pdk/ams/410/spectre/c35/esddiode.scs
Time for NDB Parsing: CPU = 196.551 ms, elapsed = 340.377 ms.
Time accumulated: CPU = 405.756 ms, elapsed = 340.381 ms.
Peak resident memory used = 168 Mbytes.

Reading link:  /opt/tools/cadence/installs/SPECTRE241/tools.lnx86/spectre/etc/ahdl/discipline.h
Reading file:  /opt/tools/cadence/installs/SPECTRE241/tools.lnx86/spectre/etc/ahdl/disciplines.vams
Reading link:  /opt/tools/cadence/installs/SPECTRE241/tools.lnx86/spectre/etc/ahdl/constants.h
Reading file:  /opt/tools/cadence/installs/SPECTRE241/tools.lnx86/spectre/etc/ahdl/constants.vams

Warning from spectre during AHDL read-in.
    WARNING (VACOMP-2435): The environment variable CDS_AHDLCMI_ENABLE is no longer supported. Therefore, the simulator will use the default compiled C code flow.

Existing shared object for module bsource_fcab9d is up to date.
Installed compiled interface for bsource_fcab9d.
Time for Elaboration: CPU = 56.377 ms, elapsed = 57.4522 ms.
Time accumulated: CPU = 462.276 ms, elapsed = 397.975 ms.
Peak resident memory used = 183 Mbytes.


Notice from spectre during hierarchy flattening.
    The value 'psf' specified for the 'checklimitdest' option will no longer be supported in future releases. Use 'spectre -h' to see other recommended values for the 'checklimitdest' option.


*****************************************************************************************
* 
* INFO: AMS_processOption = C35B4C3
* 
* INFO: Valid Modules  PIP VG5 HIRES
* 
*****************************************************************************************


Time for EDB Visiting: CPU = 6.064 ms, elapsed = 6.06394 ms.
Time accumulated: CPU = 468.463 ms, elapsed = 404.161 ms.
Peak resident memory used = 186 Mbytes.

Loading /opt/tools/cadence/installs/SPECTRE241/tools.lnx86/mdl/lib/64bit/libSpectreEH_sh.so ...

Warning from spectre during initial setup.
    WARNING (SPECTRE-17607): Assert `SOAC_rpolyh_vminuspsub' is ignored because it contains an expression which is invalid or not supported by native evaluator. 
    WARNING (SPECTRE-17607): Assert `SOAC_rpolyh_vpluspsub' is ignored because it contains an expression which is invalid or not supported by native evaluator. 
    WARNING (SPECTRE-16460): SOAC_cvarm_vspsub:Specified subcircuit master `cvarm' was not found.
    WARNING (SPECTRE-16462): SOAC_cvarm_vspsub:Error in specification of subcircuit master. Assert is ignored.
    WARNING (SPECTRE-16460): SOAC_cvarm_vbs:Specified subcircuit master `cvarm' was not found.
    WARNING (SPECTRE-16462): SOAC_cvarm_vbs:Error in specification of subcircuit master. Assert is ignored.
    WARNING (SPECTRE-16460): SOAC_cvarm_vgb:Specified subcircuit master `cvarm' was not found.
    WARNING (SPECTRE-16462): SOAC_cvarm_vgb:Error in specification of subcircuit master. Assert is ignored.
    WARNING (SPECTRE-16460): SOAC_cvart_vspsub:Specified subcircuit master `cvart' was not found.
    WARNING (SPECTRE-16462): SOAC_cvart_vspsub:Error in specification of subcircuit master. Assert is ignored.
    WARNING (SPECTRE-16460): SOAC_cvart_vbs:Specified subcircuit master `cvart' was not found.
        Further occurrences of this warning will be suppressed.
    WARNING (SPECTRE-16462): SOAC_cvart_vbs:Error in specification of subcircuit master. Assert is ignored.
        Further occurrences of this warning will be suppressed.
    WARNING (SPECTRE-17607): Assert `SOAC_cpoly_vminuspsub' is ignored because it contains an expression which is invalid or not supported by native evaluator. 
    WARNING (SPECTRE-17607): Assert `SOAC_cpoly_vpluspsub' is ignored because it contains an expression which is invalid or not supported by native evaluator. 
    WARNING (SPECTRE-17607): Assert `SOAC_modp_vbpsub' is ignored because it contains an expression which is invalid or not supported by native evaluator. 
        Further occurrences of this warning will be suppressed.
Notice from spectre during initial setup.
    Multithreading is disabled due to the size of the design being too small.


Netlist title:
        // Point Netlist Generated on: Apr 16 08:27:57 2026


Global user options:
         psfversion = 1.4.0
            vabstol = 1e-06
            iabstol = 1e-12
               temp = 27
           homotopy = 5
              limit = delta
         compatible = spice2
               gmin = 1e-12
             rforce = 1
           maxnotes = 5
           maxwarns = 5
             digits = 5
               cols = 80
             pivrel = 0.001
           sensfile = ../psf/sens.output
     checklimitdest = psf
     enable_pre_ver = yes
      ignorezerovar = yes
               save = allpub
             reltol = 0.0001
               tnom = 27
             scalem = 1
              scale = 1

Scoped user options:

Circuit inventory:
              nodes 34
            bsim3v3 35    
     bsource_fcab9d 2     
          capacitor 38    
            isource 1     
           resistor 1     
            vsource 8     

Analysis and control statement inventory:
               info 6     
         montecarlo 1     
                 xf 1     

Output statements:
             .probe 0     
           .measure 0     
               save 0     

Design checks inventory:
          paramtest 55    
             assert 175   


Notice from spectre during initial setup.
    APS enabled.
    73 warnings suppressed.

Time for parsing: CPU = 20.775 ms, elapsed = 660.329 ms.
Time accumulated: CPU = 489.34 ms, elapsed = 1.06459 s.
Peak resident memory used = 192 Mbytes.

~~~~~~~~~~~~~~~~~~~~~~
Pre-Simulation Summary
~~~~~~~~~~~~~~~~~~~~~~
   -   (APS) Multi-threading. The recommended number of threads is 1, consider adding +mt=1 on command line.
~~~~~~~~~~~~~~~~~~~~~~

**************************************************
Monte Carlo Analysis `mc1': iteration = (14 -> 26)
**************************************************
Important parameter values:
    seed = 12345
    sampling = lds
    variations = all
    firstrun = 14
    numruns = 13
    nullmfactorcorrelation = no
    donominal = no
    method = standard
Opening iteration number and data-directory mapping file:  /home/davidevi/Desktop/myproject/Sim/VGA/VGA_1_tb/adexl/results/data/MonteCarlo.2/14/xf_MC/groupRunDataDir/netlist/../psf/mc1.mapping

Statistical parameters:
    Defined process parameters: 629
    Defined mismatch parameters (subckt based): 86
    Non-referenced mismatch parameters: 80
    Number of random variables: 718
    Gaussian truncation for process parameters: 4.00 sigma
    Gaussian truncation for mismatch parameters: 4.00 sigma


**** Skipping runs 1 to 13 for `mc1'


Opening the PSF file ../psf/mc1_xf.montecarlo ...

Opening the PSF file ../psf/mc1_modelParameter.montecarlo ...

Opening the PSF file ../psf/mc1_element.montecarlo ...

Opening the PSF file ../psf/mc1_outputParameter.montecarlo ...

Opening the PSF file ../psf/mc1_designParamVals.montecarlo ...

Opening the PSF file ../psf/mc1_primitives.montecarlo ...

Opening the PSF file ../psf/mc1_subckts.montecarlo ...

**** Performing monte carlo loop for `mc1'

14   0.00% 

*****************************************************************************************
* 
* INFO: AMS_processOption = C35B4C3
* 
* INFO: Valid Modules  PIP VG5 HIRES
* 
*****************************************************************************************


***********************************************************
Transfer Function Analysis `xf': freq = (10 mHz -> 100 MHz)
***********************************************************

Opening the PSF file ../psf/mc1_separate/014/xf.xf ...

Notice from spectre at freq = 0 Hz during DC analysis, during XF analysis `xf', during Monte Carlo analysis `mc1'.
    No checklimit analysis defined for asserts. A default checklimit analysis 'SpectreChecklimitAnal' has been created with all asserts enabled.
Warning from spectre at freq = 0 Hz during check, during DC analysis, during XF analysis `xf', during Monte Carlo analysis `mc1'.
    WARNING (CMI-2943): Parameter checks have been ignored because the valid value for parameter 'trise' could not be found in 'C1'.
    WARNING (CMI-2943): Parameter checks have been ignored because the valid value for parameter 'trise' could not be found in 'I0.R2.CM'.
    WARNING (CMI-2943): Parameter checks have been ignored because the valid value for parameter 'trise' could not be found in 'I0.R2.CS1'.
    WARNING (CMI-2943): Parameter checks have been ignored because the valid value for parameter 'trise' could not be found in 'I0.R2.CS0'.
    WARNING (CMI-2943): Parameter checks have been ignored because the valid value for parameter 'trise' could not be found in 'I0.C8<3>.C1'.
        Further occurrences of this warning will be suppressed.

Convergence achieved in 19 iterations.
DC simulation time: CPU = 2.761 ms, elapsed = 2.80094 ms.
    xf: freq = 25.12 mHz      (4 %), step = 9.27 mHz        (2 %)
    xf: freq = 39.81 mHz      (6 %), step = 14.69 mHz       (2 %)
    xf: freq = 63.1 mHz       (8 %), step = 23.29 mHz       (2 %)
    xf: freq = 100 mHz       (10 %), step = 36.9 mHz        (2 %)
    xf: freq = 158.5 mHz     (12 %), step = 58.49 mHz       (2 %)
    xf: freq = 251.2 mHz     (14 %), step = 92.7 mHz        (2 %)
    xf: freq = 398.1 mHz     (16 %), step = 146.9 mHz       (2 %)
    xf: freq = 631 mHz       (18 %), step = 232.9 mHz       (2 %)
    xf: freq = 1 Hz          (20 %), step = 369 mHz         (2 %)
    xf: freq = 1.585 Hz      (22 %), step = 584.9 mHz       (2 %)
    xf: freq = 2.512 Hz      (24 %), step = 927 mHz         (2 %)
    xf: freq = 3.981 Hz      (26 %), step = 1.469 Hz        (2 %)
    xf: freq = 6.31 Hz       (28 %), step = 2.329 Hz        (2 %)
    xf: freq = 10 Hz         (30 %), step = 3.69 Hz         (2 %)
    xf: freq = 15.85 Hz      (32 %), step = 5.849 Hz        (2 %)
    xf: freq = 25.12 Hz      (34 %), step = 9.27 Hz         (2 %)
    xf: freq = 39.81 Hz      (36 %), step = 14.69 Hz        (2 %)
    xf: freq = 63.1 Hz       (38 %), step = 23.29 Hz        (2 %)
    xf: freq = 100 Hz        (40 %), step = 36.9 Hz         (2 %)
    xf: freq = 158.5 Hz      (42 %), step = 58.49 Hz        (2 %)
    xf: freq = 251.2 Hz      (44 %), step = 92.7 Hz         (2 %)
    xf: freq = 398.1 Hz      (46 %), step = 146.9 Hz        (2 %)
    xf: freq = 631 Hz        (48 %), step = 232.9 Hz        (2 %)
    xf: freq = 1 kHz         (50 %), step = 369 Hz          (2 %)
    xf: freq = 1.585 kHz     (52 %), step = 584.9 Hz        (2 %)
    xf: freq = 2.512 kHz     (54 %), step = 927 Hz          (2 %)
    xf: freq = 3.981 kHz     (56 %), step = 1.469 kHz       (2 %)
    xf: freq = 6.31 kHz      (58 %), step = 2.329 kHz       (2 %)
    xf: freq = 10 kHz        (60 %), step = 3.69 kHz        (2 %)
    xf: freq = 15.85 kHz     (62 %), step = 5.849 kHz       (2 %)
    xf: freq = 25.12 kHz     (64 %), step = 9.27 kHz        (2 %)
    xf: freq = 39.81 kHz     (66 %), step = 14.69 kHz       (2 %)
    xf: freq = 63.1 kHz      (68 %), step = 23.29 kHz       (2 %)
    xf: freq = 100 kHz       (70 %), step = 36.9 kHz        (2 %)
    xf: freq = 158.5 kHz     (72 %), step = 58.49 kHz       (2 %)
    xf: freq = 251.2 kHz     (74 %), step = 92.7 kHz        (2 %)
    xf: freq = 398.1 kHz     (76 %), step = 146.9 kHz       (2 %)
    xf: freq = 631 kHz       (78 %), step = 232.9 kHz       (2 %)
    xf: freq = 1 MHz         (80 %), step = 369 kHz         (2 %)
    xf: freq = 1.585 MHz     (82 %), step = 584.9 kHz       (2 %)
    xf: freq = 2.512 MHz     (84 %), step = 927 kHz         (2 %)
    xf: freq = 3.981 MHz     (86 %), step = 1.469 MHz       (2 %)
    xf: freq = 6.31 MHz      (88 %), step = 2.329 MHz       (2 %)
    xf: freq = 10 MHz        (90 %), step = 3.69 MHz        (2 %)
    xf: freq = 15.85 MHz     (92 %), step = 5.849 MHz       (2 %)
    xf: freq = 25.12 MHz     (94 %), step = 9.27 MHz        (2 %)
    xf: freq = 39.81 MHz     (96 %), step = 14.69 MHz       (2 %)
    xf: freq = 63.1 MHz      (98 %), step = 23.29 MHz       (2 %)
    xf: freq = 100 MHz      (100 %), step = 36.9 MHz        (2 %)
Accumulated DC solution time =            1.19209 us.
Intrinsic xf analysis time =              9.05395 ms.
Total time required for xf analysis `xf': CPU = 9.429 ms, elapsed = 10.2179 ms, util. = 92.3%.
Time accumulated: CPU = 576.202 ms, elapsed = 1.15889 s.
Peak resident memory used = 200 Mbytes.


Notice from spectre during XF analysis `xf', during Monte Carlo analysis `mc1'.
    34 warnings suppressed.

modelParameter: writing model parameter values to rawfile.

Opening the PSF file ../psf/mc1_separate/014/modelParameter.info ...
element: writing instance parameter values to rawfile.

Opening the PSF file ../psf/mc1_separate/014/element.info ...
outputParameter: writing output parameter values to rawfile.

Opening the PSF file ../psf/mc1_separate/014/outputParameter.info ...
designParamVals: writing netlist parameters to rawfile.

Opening the PSFASCII file ../psf/mc1_separate/014/designParamVals.info ...
primitives: writing primitives to rawfile.

Opening the PSFASCII file ../psf/mc1_separate/014/primitives.info.primitives ...
subckts: writing subcircuits to rawfile.

Opening the PSFASCII file ../psf/mc1_separate/014/subckts.info.subckts ...
15   8.33% 

*****************************************************************************************
* 
* INFO: AMS_processOption = C35B4C3
* 
* INFO: Valid Modules  PIP VG5 HIRES
* 
*****************************************************************************************


***********************************************************
Transfer Function Analysis `xf': freq = (10 mHz -> 100 MHz)
***********************************************************

Opening the PSF file ../psf/mc1_separate/015/xf.xf ...

Notice from spectre at freq = 0 Hz during DC analysis, during XF analysis `xf', during Monte Carlo analysis `mc1'.
    Bad pivoting is found during DC analysis. Option dc_pivot_check=yes is recommended for possible improvement of convergence.
Warning from spectre at freq = 0 Hz during check, during DC analysis, during XF analysis `xf', during Monte Carlo analysis `mc1'.
    WARNING (CMI-2943): Parameter checks have been ignored because the valid value for parameter 'trise' could not be found in 'C1'.
    WARNING (CMI-2943): Parameter checks have been ignored because the valid value for parameter 'trise' could not be found in 'I0.R2.CM'.
    WARNING (CMI-2943): Parameter checks have been ignored because the valid value for parameter 'trise' could not be found in 'I0.R2.CS1'.
    WARNING (CMI-2943): Parameter checks have been ignored because the valid value for parameter 'trise' could not be found in 'I0.R2.CS0'.
    WARNING (CMI-2943): Parameter checks have been ignored because the valid value for parameter 'trise' could not be found in 'I0.C8<3>.C1'.
        Further occurrences of this warning will be suppressed.

Convergence achieved in 19 iterations.
DC simulation time: CPU = 2.398 ms, elapsed = 2.40803 ms.
    xf: freq = 25.12 mHz      (4 %), step = 9.27 mHz        (2 %)
    xf: freq = 39.81 mHz      (6 %), step = 14.69 mHz       (2 %)
    xf: freq = 63.1 mHz       (8 %), step = 23.29 mHz       (2 %)
    xf: freq = 100 mHz       (10 %), step = 36.9 mHz        (2 %)
    xf: freq = 158.5 mHz     (12 %), step = 58.49 mHz       (2 %)
    xf: freq = 251.2 mHz     (14 %), step = 92.7 mHz        (2 %)
    xf: freq = 398.1 mHz     (16 %), step = 146.9 mHz       (2 %)
    xf: freq = 631 mHz       (18 %), step = 232.9 mHz       (2 %)
    xf: freq = 1 Hz          (20 %), step = 369 mHz         (2 %)
    xf: freq = 1.585 Hz      (22 %), step = 584.9 mHz       (2 %)
    xf: freq = 2.512 Hz      (24 %), step = 927 mHz         (2 %)
    xf: freq = 3.981 Hz      (26 %), step = 1.469 Hz        (2 %)
    xf: freq = 6.31 Hz       (28 %), step = 2.329 Hz        (2 %)
    xf: freq = 10 Hz         (30 %), step = 3.69 Hz         (2 %)
    xf: freq = 15.85 Hz      (32 %), step = 5.849 Hz        (2 %)
    xf: freq = 25.12 Hz      (34 %), step = 9.27 Hz         (2 %)
    xf: freq = 39.81 Hz      (36 %), step = 14.69 Hz        (2 %)
    xf: freq = 63.1 Hz       (38 %), step = 23.29 Hz        (2 %)
    xf: freq = 100 Hz        (40 %), step = 36.9 Hz         (2 %)
    xf: freq = 158.5 Hz      (42 %), step = 58.49 Hz        (2 %)
    xf: freq = 251.2 Hz      (44 %), step = 92.7 Hz         (2 %)
    xf: freq = 398.1 Hz      (46 %), step = 146.9 Hz        (2 %)
    xf: freq = 631 Hz        (48 %), step = 232.9 Hz        (2 %)
    xf: freq = 1 kHz         (50 %), step = 369 Hz          (2 %)
    xf: freq = 1.585 kHz     (52 %), step = 584.9 Hz        (2 %)
    xf: freq = 2.512 kHz     (54 %), step = 927 Hz          (2 %)
    xf: freq = 3.981 kHz     (56 %), step = 1.469 kHz       (2 %)
    xf: freq = 6.31 kHz      (58 %), step = 2.329 kHz       (2 %)
    xf: freq = 10 kHz        (60 %), step = 3.69 kHz        (2 %)
    xf: freq = 15.85 kHz     (62 %), step = 5.849 kHz       (2 %)
    xf: freq = 25.12 kHz     (64 %), step = 9.27 kHz        (2 %)
    xf: freq = 39.81 kHz     (66 %), step = 14.69 kHz       (2 %)
    xf: freq = 63.1 kHz      (68 %), step = 23.29 kHz       (2 %)
    xf: freq = 100 kHz       (70 %), step = 36.9 kHz        (2 %)
    xf: freq = 158.5 kHz     (72 %), step = 58.49 kHz       (2 %)
    xf: freq = 251.2 kHz     (74 %), step = 92.7 kHz        (2 %)
    xf: freq = 398.1 kHz     (76 %), step = 146.9 kHz       (2 %)
    xf: freq = 631 kHz       (78 %), step = 232.9 kHz       (2 %)
    xf: freq = 1 MHz         (80 %), step = 369 kHz         (2 %)
    xf: freq = 1.585 MHz     (82 %), step = 584.9 kHz       (2 %)
    xf: freq = 2.512 MHz     (84 %), step = 927 kHz         (2 %)
    xf: freq = 3.981 MHz     (86 %), step = 1.469 MHz       (2 %)
    xf: freq = 6.31 MHz      (88 %), step = 2.329 MHz       (2 %)
    xf: freq = 10 MHz        (90 %), step = 3.69 MHz        (2 %)
    xf: freq = 15.85 MHz     (92 %), step = 5.849 MHz       (2 %)
    xf: freq = 25.12 MHz     (94 %), step = 9.27 MHz        (2 %)
    xf: freq = 39.81 MHz     (96 %), step = 14.69 MHz       (2 %)
    xf: freq = 63.1 MHz      (98 %), step = 23.29 MHz       (2 %)
    xf: freq = 100 MHz      (100 %), step = 36.9 MHz        (2 %)
Accumulated DC solution time =            953.674 ns.
Intrinsic xf analysis time =              8.63099 ms.
Total time required for xf analysis `xf': CPU = 8.404 ms, elapsed = 9.05299 ms, util. = 92.8%.
Time accumulated: CPU = 622.031 ms, elapsed = 1.21334 s.
Peak resident memory used = 202 Mbytes.


Notice from spectre during XF analysis `xf', during Monte Carlo analysis `mc1'.
    34 warnings suppressed.

modelParameter: writing model parameter values to rawfile.

Opening the PSF file ../psf/mc1_separate/015/modelParameter.info ...
element: writing instance parameter values to rawfile.

Opening the PSF file ../psf/mc1_separate/015/element.info ...
outputParameter: writing output parameter values to rawfile.

Opening the PSF file ../psf/mc1_separate/015/outputParameter.info ...
designParamVals: writing netlist parameters to rawfile.

Opening the PSFASCII file ../psf/mc1_separate/015/designParamVals.info ...
primitives: writing primitives to rawfile.

Opening the PSFASCII file ../psf/mc1_separate/015/primitives.info.primitives ...
subckts: writing subcircuits to rawfile.

Opening the PSFASCII file ../psf/mc1_separate/015/subckts.info.subckts ...
    mc1: iteration = 15          (8.33 %), step = 1            (8.33 %)
16  16.67% 

*****************************************************************************************
* 
* INFO: AMS_processOption = C35B4C3
* 
* INFO: Valid Modules  PIP VG5 HIRES
* 
*****************************************************************************************


***********************************************************
Transfer Function Analysis `xf': freq = (10 mHz -> 100 MHz)
***********************************************************

Opening the PSF file ../psf/mc1_separate/016/xf.xf ...

Warning from spectre at freq = 0 Hz during check, during DC analysis, during XF analysis `xf', during Monte Carlo analysis `mc1'.
    WARNING (CMI-2943): Parameter checks have been ignored because the valid value for parameter 'trise' could not be found in 'C1'.
    WARNING (CMI-2943): Parameter checks have been ignored because the valid value for parameter 'trise' could not be found in 'I0.R2.CM'.
    WARNING (CMI-2943): Parameter checks have been ignored because the valid value for parameter 'trise' could not be found in 'I0.R2.CS1'.
    WARNING (CMI-2943): Parameter checks have been ignored because the valid value for parameter 'trise' could not be found in 'I0.R2.CS0'.
    WARNING (CMI-2943): Parameter checks have been ignored because the valid value for parameter 'trise' could not be found in 'I0.C8<3>.C1'.
        Further occurrences of this warning will be suppressed.

Convergence achieved in 20 iterations.
DC simulation time: CPU = 2.06 ms, elapsed = 2.05994 ms.
    xf: freq = 25.12 mHz      (4 %), step = 9.27 mHz        (2 %)
    xf: freq = 39.81 mHz      (6 %), step = 14.69 mHz       (2 %)
    xf: freq = 63.1 mHz       (8 %), step = 23.29 mHz       (2 %)
    xf: freq = 100 mHz       (10 %), step = 36.9 mHz        (2 %)
    xf: freq = 158.5 mHz     (12 %), step = 58.49 mHz       (2 %)
    xf: freq = 251.2 mHz     (14 %), step = 92.7 mHz        (2 %)
    xf: freq = 398.1 mHz     (16 %), step = 146.9 mHz       (2 %)
    xf: freq = 631 mHz       (18 %), step = 232.9 mHz       (2 %)
    xf: freq = 1 Hz          (20 %), step = 369 mHz         (2 %)
    xf: freq = 1.585 Hz      (22 %), step = 584.9 mHz       (2 %)
    xf: freq = 2.512 Hz      (24 %), step = 927 mHz         (2 %)
    xf: freq = 3.981 Hz      (26 %), step = 1.469 Hz        (2 %)
    xf: freq = 6.31 Hz       (28 %), step = 2.329 Hz        (2 %)
    xf: freq = 10 Hz         (30 %), step = 3.69 Hz         (2 %)
    xf: freq = 15.85 Hz      (32 %), step = 5.849 Hz        (2 %)
    xf: freq = 25.12 Hz      (34 %), step = 9.27 Hz         (2 %)
    xf: freq = 39.81 Hz      (36 %), step = 14.69 Hz        (2 %)
    xf: freq = 63.1 Hz       (38 %), step = 23.29 Hz        (2 %)
    xf: freq = 100 Hz        (40 %), step = 36.9 Hz         (2 %)
    xf: freq = 158.5 Hz      (42 %), step = 58.49 Hz        (2 %)
    xf: freq = 251.2 Hz      (44 %), step = 92.7 Hz         (2 %)
    xf: freq = 398.1 Hz      (46 %), step = 146.9 Hz        (2 %)
    xf: freq = 631 Hz        (48 %), step = 232.9 Hz        (2 %)
    xf: freq = 1 kHz         (50 %), step = 369 Hz          (2 %)
    xf: freq = 1.585 kHz     (52 %), step = 584.9 Hz        (2 %)
    xf: freq = 2.512 kHz     (54 %), step = 927 Hz          (2 %)
    xf: freq = 3.981 kHz     (56 %), step = 1.469 kHz       (2 %)
    xf: freq = 6.31 kHz      (58 %), step = 2.329 kHz       (2 %)
    xf: freq = 10 kHz        (60 %), step = 3.69 kHz        (2 %)
    xf: freq = 15.85 kHz     (62 %), step = 5.849 kHz       (2 %)
    xf: freq = 25.12 kHz     (64 %), step = 9.27 kHz        (2 %)
    xf: freq = 39.81 kHz     (66 %), step = 14.69 kHz       (2 %)
    xf: freq = 63.1 kHz      (68 %), step = 23.29 kHz       (2 %)
    xf: freq = 100 kHz       (70 %), step = 36.9 kHz        (2 %)
    xf: freq = 158.5 kHz     (72 %), step = 58.49 kHz       (2 %)
    xf: freq = 251.2 kHz     (74 %), step = 92.7 kHz        (2 %)
    xf: freq = 398.1 kHz     (76 %), step = 146.9 kHz       (2 %)
    xf: freq = 631 kHz       (78 %), step = 232.9 kHz       (2 %)
    xf: freq = 1 MHz         (80 %), step = 369 kHz         (2 %)
    xf: freq = 1.585 MHz     (82 %), step = 584.9 kHz       (2 %)
    xf: freq = 2.512 MHz     (84 %), step = 927 kHz         (2 %)
    xf: freq = 3.981 MHz     (86 %), step = 1.469 MHz       (2 %)
    xf: freq = 6.31 MHz      (88 %), step = 2.329 MHz       (2 %)
    xf: freq = 10 MHz        (90 %), step = 3.69 MHz        (2 %)
    xf: freq = 15.85 MHz     (92 %), step = 5.849 MHz       (2 %)
    xf: freq = 25.12 MHz     (94 %), step = 9.27 MHz        (2 %)
    xf: freq = 39.81 MHz     (96 %), step = 14.69 MHz       (2 %)
    xf: freq = 63.1 MHz      (98 %), step = 23.29 MHz       (2 %)
    xf: freq = 100 MHz      (100 %), step = 36.9 MHz        (2 %)
Accumulated DC solution time =            0 s.
Intrinsic xf analysis time =              7.67589 ms.
Total time required for xf analysis `xf': CPU = 7.274 ms, elapsed = 7.88403 ms, util. = 92.3%.
Time accumulated: CPU = 663.558 ms, elapsed = 1.26361 s.
Peak resident memory used = 202 Mbytes.


Notice from spectre during XF analysis `xf', during Monte Carlo analysis `mc1'.
    34 warnings suppressed.

modelParameter: writing model parameter values to rawfile.

Opening the PSF file ../psf/mc1_separate/016/modelParameter.info ...
element: writing instance parameter values to rawfile.

Opening the PSF file ../psf/mc1_separate/016/element.info ...
outputParameter: writing output parameter values to rawfile.

Opening the PSF file ../psf/mc1_separate/016/outputParameter.info ...
designParamVals: writing netlist parameters to rawfile.

Opening the PSFASCII file ../psf/mc1_separate/016/designParamVals.info ...
primitives: writing primitives to rawfile.

Opening the PSFASCII file ../psf/mc1_separate/016/primitives.info.primitives ...
subckts: writing subcircuits to rawfile.

Opening the PSFASCII file ../psf/mc1_separate/016/subckts.info.subckts ...
    mc1: iteration = 16          (16.7 %), step = 1            (8.33 %)
17  25.00% 

*****************************************************************************************
* 
* INFO: AMS_processOption = C35B4C3
* 
* INFO: Valid Modules  PIP VG5 HIRES
* 
*****************************************************************************************


***********************************************************
Transfer Function Analysis `xf': freq = (10 mHz -> 100 MHz)
***********************************************************

Opening the PSF file ../psf/mc1_separate/017/xf.xf ...

Notice from spectre at freq = 0 Hz during DC analysis, during XF analysis `xf', during Monte Carlo analysis `mc1'.
    Bad pivoting is found during DC analysis. Option dc_pivot_check=yes is recommended for possible improvement of convergence.
Warning from spectre at freq = 0 Hz during check, during DC analysis, during XF analysis `xf', during Monte Carlo analysis `mc1'.
    WARNING (CMI-2943): Parameter checks have been ignored because the valid value for parameter 'trise' could not be found in 'C1'.
    WARNING (CMI-2943): Parameter checks have been ignored because the valid value for parameter 'trise' could not be found in 'I0.R2.CM'.
    WARNING (CMI-2943): Parameter checks have been ignored because the valid value for parameter 'trise' could not be found in 'I0.R2.CS1'.
    WARNING (CMI-2943): Parameter checks have been ignored because the valid value for parameter 'trise' could not be found in 'I0.R2.CS0'.
    WARNING (CMI-2943): Parameter checks have been ignored because the valid value for parameter 'trise' could not be found in 'I0.C8<3>.C1'.
        Further occurrences of this warning will be suppressed.

Convergence achieved in 34 iterations.
DC simulation time: CPU = 3.14 ms, elapsed = 3.37195 ms.
    xf: freq = 25.12 mHz      (4 %), step = 9.27 mHz        (2 %)
    xf: freq = 39.81 mHz      (6 %), step = 14.69 mHz       (2 %)
    xf: freq = 63.1 mHz       (8 %), step = 23.29 mHz       (2 %)
    xf: freq = 100 mHz       (10 %), step = 36.9 mHz        (2 %)
    xf: freq = 158.5 mHz     (12 %), step = 58.49 mHz       (2 %)
    xf: freq = 251.2 mHz     (14 %), step = 92.7 mHz        (2 %)
    xf: freq = 398.1 mHz     (16 %), step = 146.9 mHz       (2 %)
    xf: freq = 631 mHz       (18 %), step = 232.9 mHz       (2 %)
    xf: freq = 1 Hz          (20 %), step = 369 mHz         (2 %)
    xf: freq = 1.585 Hz      (22 %), step = 584.9 mHz       (2 %)
    xf: freq = 2.512 Hz      (24 %), step = 927 mHz         (2 %)
    xf: freq = 3.981 Hz      (26 %), step = 1.469 Hz        (2 %)
    xf: freq = 6.31 Hz       (28 %), step = 2.329 Hz        (2 %)
    xf: freq = 10 Hz         (30 %), step = 3.69 Hz         (2 %)
    xf: freq = 15.85 Hz      (32 %), step = 5.849 Hz        (2 %)
    xf: freq = 25.12 Hz      (34 %), step = 9.27 Hz         (2 %)
    xf: freq = 39.81 Hz      (36 %), step = 14.69 Hz        (2 %)
    xf: freq = 63.1 Hz       (38 %), step = 23.29 Hz        (2 %)
    xf: freq = 100 Hz        (40 %), step = 36.9 Hz         (2 %)
    xf: freq = 158.5 Hz      (42 %), step = 58.49 Hz        (2 %)
    xf: freq = 251.2 Hz      (44 %), step = 92.7 Hz         (2 %)
    xf: freq = 398.1 Hz      (46 %), step = 146.9 Hz        (2 %)
    xf: freq = 631 Hz        (48 %), step = 232.9 Hz        (2 %)
    xf: freq = 1 kHz         (50 %), step = 369 Hz          (2 %)
    xf: freq = 1.585 kHz     (52 %), step = 584.9 Hz        (2 %)
    xf: freq = 2.512 kHz     (54 %), step = 927 Hz          (2 %)
    xf: freq = 3.981 kHz     (56 %), step = 1.469 kHz       (2 %)
    xf: freq = 6.31 kHz      (58 %), step = 2.329 kHz       (2 %)
    xf: freq = 10 kHz        (60 %), step = 3.69 kHz        (2 %)
    xf: freq = 15.85 kHz     (62 %), step = 5.849 kHz       (2 %)
    xf: freq = 25.12 kHz     (64 %), step = 9.27 kHz        (2 %)
    xf: freq = 39.81 kHz     (66 %), step = 14.69 kHz       (2 %)
    xf: freq = 63.1 kHz      (68 %), step = 23.29 kHz       (2 %)
    xf: freq = 100 kHz       (70 %), step = 36.9 kHz        (2 %)
    xf: freq = 158.5 kHz     (72 %), step = 58.49 kHz       (2 %)
    xf: freq = 251.2 kHz     (74 %), step = 92.7 kHz        (2 %)
    xf: freq = 398.1 kHz     (76 %), step = 146.9 kHz       (2 %)
    xf: freq = 631 kHz       (78 %), step = 232.9 kHz       (2 %)
    xf: freq = 1 MHz         (80 %), step = 369 kHz         (2 %)
    xf: freq = 1.585 MHz     (82 %), step = 584.9 kHz       (2 %)
    xf: freq = 2.512 MHz     (84 %), step = 927 kHz         (2 %)
    xf: freq = 3.981 MHz     (86 %), step = 1.469 MHz       (2 %)
    xf: freq = 6.31 MHz      (88 %), step = 2.329 MHz       (2 %)
    xf: freq = 10 MHz        (90 %), step = 3.69 MHz        (2 %)
    xf: freq = 15.85 MHz     (92 %), step = 5.849 MHz       (2 %)
    xf: freq = 25.12 MHz     (94 %), step = 9.27 MHz        (2 %)
    xf: freq = 39.81 MHz     (96 %), step = 14.69 MHz       (2 %)
    xf: freq = 63.1 MHz      (98 %), step = 23.29 MHz       (2 %)
    xf: freq = 100 MHz      (100 %), step = 36.9 MHz        (2 %)
Accumulated DC solution time =            953.674 ns.
Intrinsic xf analysis time =              9.25589 ms.
Total time required for xf analysis `xf': CPU = 8.459 ms, elapsed = 9.46498 ms, util. = 89.4%.
Time accumulated: CPU = 703.437 ms, elapsed = 1.31255 s.
Peak resident memory used = 202 Mbytes.


Notice from spectre during XF analysis `xf', during Monte Carlo analysis `mc1'.
    34 warnings suppressed.

modelParameter: writing model parameter values to rawfile.

Opening the PSF file ../psf/mc1_separate/017/modelParameter.info ...
element: writing instance parameter values to rawfile.

Opening the PSF file ../psf/mc1_separate/017/element.info ...
outputParameter: writing output parameter values to rawfile.

Opening the PSF file ../psf/mc1_separate/017/outputParameter.info ...
designParamVals: writing netlist parameters to rawfile.

Opening the PSFASCII file ../psf/mc1_separate/017/designParamVals.info ...
primitives: writing primitives to rawfile.

Opening the PSFASCII file ../psf/mc1_separate/017/primitives.info.primitives ...
subckts: writing subcircuits to rawfile.

Opening the PSFASCII file ../psf/mc1_separate/017/subckts.info.subckts ...
    mc1: iteration = 17            (25 %), step = 1            (8.33 %)
18  33.33% 

*****************************************************************************************
* 
* INFO: AMS_processOption = C35B4C3
* 
* INFO: Valid Modules  PIP VG5 HIRES
* 
*****************************************************************************************


***********************************************************
Transfer Function Analysis `xf': freq = (10 mHz -> 100 MHz)
***********************************************************

Opening the PSF file ../psf/mc1_separate/018/xf.xf ...

Notice from spectre at freq = 0 Hz during DC analysis, during XF analysis `xf', during Monte Carlo analysis `mc1'.
    Bad pivoting is found during DC analysis. Option dc_pivot_check=yes is recommended for possible improvement of convergence.
Warning from spectre at freq = 0 Hz during check, during DC analysis, during XF analysis `xf', during Monte Carlo analysis `mc1'.
    WARNING (CMI-2943): Parameter checks have been ignored because the valid value for parameter 'trise' could not be found in 'C1'.
    WARNING (CMI-2943): Parameter checks have been ignored because the valid value for parameter 'trise' could not be found in 'I0.R2.CM'.
    WARNING (CMI-2943): Parameter checks have been ignored because the valid value for parameter 'trise' could not be found in 'I0.R2.CS1'.
    WARNING (CMI-2943): Parameter checks have been ignored because the valid value for parameter 'trise' could not be found in 'I0.R2.CS0'.
    WARNING (CMI-2943): Parameter checks have been ignored because the valid value for parameter 'trise' could not be found in 'I0.C8<3>.C1'.
        Further occurrences of this warning will be suppressed.

Convergence achieved in 20 iterations.
DC simulation time: CPU = 2.063 ms, elapsed = 2.06399 ms.
    xf: freq = 25.12 mHz      (4 %), step = 9.27 mHz        (2 %)
    xf: freq = 39.81 mHz      (6 %), step = 14.69 mHz       (2 %)
    xf: freq = 63.1 mHz       (8 %), step = 23.29 mHz       (2 %)
    xf: freq = 100 mHz       (10 %), step = 36.9 mHz        (2 %)
    xf: freq = 158.5 mHz     (12 %), step = 58.49 mHz       (2 %)
    xf: freq = 251.2 mHz     (14 %), step = 92.7 mHz        (2 %)
    xf: freq = 398.1 mHz     (16 %), step = 146.9 mHz       (2 %)
    xf: freq = 631 mHz       (18 %), step = 232.9 mHz       (2 %)
    xf: freq = 1 Hz          (20 %), step = 369 mHz         (2 %)
    xf: freq = 1.585 Hz      (22 %), step = 584.9 mHz       (2 %)
    xf: freq = 2.512 Hz      (24 %), step = 927 mHz         (2 %)
    xf: freq = 3.981 Hz      (26 %), step = 1.469 Hz        (2 %)
    xf: freq = 6.31 Hz       (28 %), step = 2.329 Hz        (2 %)
    xf: freq = 10 Hz         (30 %), step = 3.69 Hz         (2 %)
    xf: freq = 15.85 Hz      (32 %), step = 5.849 Hz        (2 %)
    xf: freq = 25.12 Hz      (34 %), step = 9.27 Hz         (2 %)
    xf: freq = 39.81 Hz      (36 %), step = 14.69 Hz        (2 %)
    xf: freq = 63.1 Hz       (38 %), step = 23.29 Hz        (2 %)
    xf: freq = 100 Hz        (40 %), step = 36.9 Hz         (2 %)
    xf: freq = 158.5 Hz      (42 %), step = 58.49 Hz        (2 %)
    xf: freq = 251.2 Hz      (44 %), step = 92.7 Hz         (2 %)
    xf: freq = 398.1 Hz      (46 %), step = 146.9 Hz        (2 %)
    xf: freq = 631 Hz        (48 %), step = 232.9 Hz        (2 %)
    xf: freq = 1 kHz         (50 %), step = 369 Hz          (2 %)
    xf: freq = 1.585 kHz     (52 %), step = 584.9 Hz        (2 %)
    xf: freq = 2.512 kHz     (54 %), step = 927 Hz          (2 %)
    xf: freq = 3.981 kHz     (56 %), step = 1.469 kHz       (2 %)
    xf: freq = 6.31 kHz      (58 %), step = 2.329 kHz       (2 %)
    xf: freq = 10 kHz        (60 %), step = 3.69 kHz        (2 %)
    xf: freq = 15.85 kHz     (62 %), step = 5.849 kHz       (2 %)
    xf: freq = 25.12 kHz     (64 %), step = 9.27 kHz        (2 %)
    xf: freq = 39.81 kHz     (66 %), step = 14.69 kHz       (2 %)
    xf: freq = 63.1 kHz      (68 %), step = 23.29 kHz       (2 %)
    xf: freq = 100 kHz       (70 %), step = 36.9 kHz        (2 %)
    xf: freq = 158.5 kHz     (72 %), step = 58.49 kHz       (2 %)
    xf: freq = 251.2 kHz     (74 %), step = 92.7 kHz        (2 %)
    xf: freq = 398.1 kHz     (76 %), step = 146.9 kHz       (2 %)
    xf: freq = 631 kHz       (78 %), step = 232.9 kHz       (2 %)
    xf: freq = 1 MHz         (80 %), step = 369 kHz         (2 %)
    xf: freq = 1.585 MHz     (82 %), step = 584.9 kHz       (2 %)
    xf: freq = 2.512 MHz     (84 %), step = 927 kHz         (2 %)
    xf: freq = 3.981 MHz     (86 %), step = 1.469 MHz       (2 %)
    xf: freq = 6.31 MHz      (88 %), step = 2.329 MHz       (2 %)
    xf: freq = 10 MHz        (90 %), step = 3.69 MHz        (2 %)
    xf: freq = 15.85 MHz     (92 %), step = 5.849 MHz       (2 %)
    xf: freq = 25.12 MHz     (94 %), step = 9.27 MHz        (2 %)
    xf: freq = 39.81 MHz     (96 %), step = 14.69 MHz       (2 %)
    xf: freq = 63.1 MHz      (98 %), step = 23.29 MHz       (2 %)
    xf: freq = 100 MHz      (100 %), step = 36.9 MHz        (2 %)
Accumulated DC solution time =            0 s.
Intrinsic xf analysis time =              7.68614 ms.
Total time required for xf analysis `xf': CPU = 7.304 ms, elapsed = 7.88593 ms, util. = 92.6%.
Time accumulated: CPU = 742.535 ms, elapsed = 1.36167 s.
Peak resident memory used = 202 Mbytes.


Notice from spectre during XF analysis `xf', during Monte Carlo analysis `mc1'.
    34 warnings suppressed.

modelParameter: writing model parameter values to rawfile.

Opening the PSF file ../psf/mc1_separate/018/modelParameter.info ...
element: writing instance parameter values to rawfile.

Opening the PSF file ../psf/mc1_separate/018/element.info ...
outputParameter: writing output parameter values to rawfile.

Opening the PSF file ../psf/mc1_separate/018/outputParameter.info ...
designParamVals: writing netlist parameters to rawfile.

Opening the PSFASCII file ../psf/mc1_separate/018/designParamVals.info ...
primitives: writing primitives to rawfile.

Opening the PSFASCII file ../psf/mc1_separate/018/primitives.info.primitives ...
subckts: writing subcircuits to rawfile.

Opening the PSFASCII file ../psf/mc1_separate/018/subckts.info.subckts ...
    mc1: iteration = 18          (33.3 %), step = 1            (8.33 %)
19  41.67% 

*****************************************************************************************
* 
* INFO: AMS_processOption = C35B4C3
* 
* INFO: Valid Modules  PIP VG5 HIRES
* 
*****************************************************************************************


***********************************************************
Transfer Function Analysis `xf': freq = (10 mHz -> 100 MHz)
***********************************************************

Opening the PSF file ../psf/mc1_separate/019/xf.xf ...

Warning from spectre at freq = 0 Hz during check, during DC analysis, during XF analysis `xf', during Monte Carlo analysis `mc1'.
    WARNING (CMI-2943): Parameter checks have been ignored because the valid value for parameter 'trise' could not be found in 'C1'.
    WARNING (CMI-2943): Parameter checks have been ignored because the valid value for parameter 'trise' could not be found in 'I0.R2.CM'.
    WARNING (CMI-2943): Parameter checks have been ignored because the valid value for parameter 'trise' could not be found in 'I0.R2.CS1'.
    WARNING (CMI-2943): Parameter checks have been ignored because the valid value for parameter 'trise' could not be found in 'I0.R2.CS0'.
    WARNING (CMI-2943): Parameter checks have been ignored because the valid value for parameter 'trise' could not be found in 'I0.C8<3>.C1'.
        Further occurrences of this warning will be suppressed.

Convergence achieved in 19 iterations.
DC simulation time: CPU = 1.953 ms, elapsed = 1.95312 ms.
    xf: freq = 25.12 mHz      (4 %), step = 9.27 mHz        (2 %)
    xf: freq = 39.81 mHz      (6 %), step = 14.69 mHz       (2 %)
    xf: freq = 63.1 mHz       (8 %), step = 23.29 mHz       (2 %)
    xf: freq = 100 mHz       (10 %), step = 36.9 mHz        (2 %)
    xf: freq = 158.5 mHz     (12 %), step = 58.49 mHz       (2 %)
    xf: freq = 251.2 mHz     (14 %), step = 92.7 mHz        (2 %)
    xf: freq = 398.1 mHz     (16 %), step = 146.9 mHz       (2 %)
    xf: freq = 631 mHz       (18 %), step = 232.9 mHz       (2 %)
    xf: freq = 1 Hz          (20 %), step = 369 mHz         (2 %)
    xf: freq = 1.585 Hz      (22 %), step = 584.9 mHz       (2 %)
    xf: freq = 2.512 Hz      (24 %), step = 927 mHz         (2 %)
    xf: freq = 3.981 Hz      (26 %), step = 1.469 Hz        (2 %)
    xf: freq = 6.31 Hz       (28 %), step = 2.329 Hz        (2 %)
    xf: freq = 10 Hz         (30 %), step = 3.69 Hz         (2 %)
    xf: freq = 15.85 Hz      (32 %), step = 5.849 Hz        (2 %)
    xf: freq = 25.12 Hz      (34 %), step = 9.27 Hz         (2 %)
    xf: freq = 39.81 Hz      (36 %), step = 14.69 Hz        (2 %)
    xf: freq = 63.1 Hz       (38 %), step = 23.29 Hz        (2 %)
    xf: freq = 100 Hz        (40 %), step = 36.9 Hz         (2 %)
    xf: freq = 158.5 Hz      (42 %), step = 58.49 Hz        (2 %)
    xf: freq = 251.2 Hz      (44 %), step = 92.7 Hz         (2 %)
    xf: freq = 398.1 Hz      (46 %), step = 146.9 Hz        (2 %)
    xf: freq = 631 Hz        (48 %), step = 232.9 Hz        (2 %)
    xf: freq = 1 kHz         (50 %), step = 369 Hz          (2 %)
    xf: freq = 1.585 kHz     (52 %), step = 584.9 Hz        (2 %)
    xf: freq = 2.512 kHz     (54 %), step = 927 Hz          (2 %)
    xf: freq = 3.981 kHz     (56 %), step = 1.469 kHz       (2 %)
    xf: freq = 6.31 kHz      (58 %), step = 2.329 kHz       (2 %)
    xf: freq = 10 kHz        (60 %), step = 3.69 kHz        (2 %)
    xf: freq = 15.85 kHz     (62 %), step = 5.849 kHz       (2 %)
    xf: freq = 25.12 kHz     (64 %), step = 9.27 kHz        (2 %)
    xf: freq = 39.81 kHz     (66 %), step = 14.69 kHz       (2 %)
    xf: freq = 63.1 kHz      (68 %), step = 23.29 kHz       (2 %)
    xf: freq = 100 kHz       (70 %), step = 36.9 kHz        (2 %)
    xf: freq = 158.5 kHz     (72 %), step = 58.49 kHz       (2 %)
    xf: freq = 251.2 kHz     (74 %), step = 92.7 kHz        (2 %)
    xf: freq = 398.1 kHz     (76 %), step = 146.9 kHz       (2 %)
    xf: freq = 631 kHz       (78 %), step = 232.9 kHz       (2 %)
    xf: freq = 1 MHz         (80 %), step = 369 kHz         (2 %)
    xf: freq = 1.585 MHz     (82 %), step = 584.9 kHz       (2 %)
    xf: freq = 2.512 MHz     (84 %), step = 927 kHz         (2 %)
    xf: freq = 3.981 MHz     (86 %), step = 1.469 MHz       (2 %)
    xf: freq = 6.31 MHz      (88 %), step = 2.329 MHz       (2 %)
    xf: freq = 10 MHz        (90 %), step = 3.69 MHz        (2 %)
    xf: freq = 15.85 MHz     (92 %), step = 5.849 MHz       (2 %)
    xf: freq = 25.12 MHz     (94 %), step = 9.27 MHz        (2 %)
    xf: freq = 39.81 MHz     (96 %), step = 14.69 MHz       (2 %)
    xf: freq = 63.1 MHz      (98 %), step = 23.29 MHz       (2 %)
    xf: freq = 100 MHz      (100 %), step = 36.9 MHz        (2 %)
Accumulated DC solution time =            0 s.
Intrinsic xf analysis time =              7.53593 ms.
Total time required for xf analysis `xf': CPU = 7.138 ms, elapsed = 7.72309 ms, util. = 92.4%.
Time accumulated: CPU = 780.679 ms, elapsed = 1.40808 s.
Peak resident memory used = 202 Mbytes.


Notice from spectre during XF analysis `xf', during Monte Carlo analysis `mc1'.
    34 warnings suppressed.

modelParameter: writing model parameter values to rawfile.

Opening the PSF file ../psf/mc1_separate/019/modelParameter.info ...
element: writing instance parameter values to rawfile.

Opening the PSF file ../psf/mc1_separate/019/element.info ...
outputParameter: writing output parameter values to rawfile.

Opening the PSF file ../psf/mc1_separate/019/outputParameter.info ...
designParamVals: writing netlist parameters to rawfile.

Opening the PSFASCII file ../psf/mc1_separate/019/designParamVals.info ...
primitives: writing primitives to rawfile.

Opening the PSFASCII file ../psf/mc1_separate/019/primitives.info.primitives ...
subckts: writing subcircuits to rawfile.

Opening the PSFASCII file ../psf/mc1_separate/019/subckts.info.subckts ...
    mc1: iteration = 19          (41.7 %), step = 1            (8.33 %)
20  50.00% 

*****************************************************************************************
* 
* INFO: AMS_processOption = C35B4C3
* 
* INFO: Valid Modules  PIP VG5 HIRES
* 
*****************************************************************************************


***********************************************************
Transfer Function Analysis `xf': freq = (10 mHz -> 100 MHz)
***********************************************************

Opening the PSF file ../psf/mc1_separate/020/xf.xf ...

Warning from spectre at freq = 0 Hz during check, during DC analysis, during XF analysis `xf', during Monte Carlo analysis `mc1'.
    WARNING (CMI-2943): Parameter checks have been ignored because the valid value for parameter 'trise' could not be found in 'C1'.
    WARNING (CMI-2943): Parameter checks have been ignored because the valid value for parameter 'trise' could not be found in 'I0.R2.CM'.
    WARNING (CMI-2943): Parameter checks have been ignored because the valid value for parameter 'trise' could not be found in 'I0.R2.CS1'.
    WARNING (CMI-2943): Parameter checks have been ignored because the valid value for parameter 'trise' could not be found in 'I0.R2.CS0'.
    WARNING (CMI-2943): Parameter checks have been ignored because the valid value for parameter 'trise' could not be found in 'I0.C8<3>.C1'.
        Further occurrences of this warning will be suppressed.

Convergence achieved in 19 iterations.
DC simulation time: CPU = 2.028 ms, elapsed = 2.14195 ms.
    xf: freq = 25.12 mHz      (4 %), step = 9.27 mHz        (2 %)
    xf: freq = 39.81 mHz      (6 %), step = 14.69 mHz       (2 %)
    xf: freq = 63.1 mHz       (8 %), step = 23.29 mHz       (2 %)
    xf: freq = 100 mHz       (10 %), step = 36.9 mHz        (2 %)
    xf: freq = 158.5 mHz     (12 %), step = 58.49 mHz       (2 %)
    xf: freq = 251.2 mHz     (14 %), step = 92.7 mHz        (2 %)
    xf: freq = 398.1 mHz     (16 %), step = 146.9 mHz       (2 %)
    xf: freq = 631 mHz       (18 %), step = 232.9 mHz       (2 %)
    xf: freq = 1 Hz          (20 %), step = 369 mHz         (2 %)
    xf: freq = 1.585 Hz      (22 %), step = 584.9 mHz       (2 %)
    xf: freq = 2.512 Hz      (24 %), step = 927 mHz         (2 %)
    xf: freq = 3.981 Hz      (26 %), step = 1.469 Hz        (2 %)
    xf: freq = 6.31 Hz       (28 %), step = 2.329 Hz        (2 %)
    xf: freq = 10 Hz         (30 %), step = 3.69 Hz         (2 %)
    xf: freq = 15.85 Hz      (32 %), step = 5.849 Hz        (2 %)
    xf: freq = 25.12 Hz      (34 %), step = 9.27 Hz         (2 %)
    xf: freq = 39.81 Hz      (36 %), step = 14.69 Hz        (2 %)
    xf: freq = 63.1 Hz       (38 %), step = 23.29 Hz        (2 %)
    xf: freq = 100 Hz        (40 %), step = 36.9 Hz         (2 %)
    xf: freq = 158.5 Hz      (42 %), step = 58.49 Hz        (2 %)
    xf: freq = 251.2 Hz      (44 %), step = 92.7 Hz         (2 %)
    xf: freq = 398.1 Hz      (46 %), step = 146.9 Hz        (2 %)
    xf: freq = 631 Hz        (48 %), step = 232.9 Hz        (2 %)
    xf: freq = 1 kHz         (50 %), step = 369 Hz          (2 %)
    xf: freq = 1.585 kHz     (52 %), step = 584.9 Hz        (2 %)
    xf: freq = 2.512 kHz     (54 %), step = 927 Hz          (2 %)
    xf: freq = 3.981 kHz     (56 %), step = 1.469 kHz       (2 %)
    xf: freq = 6.31 kHz      (58 %), step = 2.329 kHz       (2 %)
    xf: freq = 10 kHz        (60 %), step = 3.69 kHz        (2 %)
    xf: freq = 15.85 kHz     (62 %), step = 5.849 kHz       (2 %)
    xf: freq = 25.12 kHz     (64 %), step = 9.27 kHz        (2 %)
    xf: freq = 39.81 kHz     (66 %), step = 14.69 kHz       (2 %)
    xf: freq = 63.1 kHz      (68 %), step = 23.29 kHz       (2 %)
    xf: freq = 100 kHz       (70 %), step = 36.9 kHz        (2 %)
    xf: freq = 158.5 kHz     (72 %), step = 58.49 kHz       (2 %)
    xf: freq = 251.2 kHz     (74 %), step = 92.7 kHz        (2 %)
    xf: freq = 398.1 kHz     (76 %), step = 146.9 kHz       (2 %)
    xf: freq = 631 kHz       (78 %), step = 232.9 kHz       (2 %)
    xf: freq = 1 MHz         (80 %), step = 369 kHz         (2 %)
    xf: freq = 1.585 MHz     (82 %), step = 584.9 kHz       (2 %)
    xf: freq = 2.512 MHz     (84 %), step = 927 kHz         (2 %)
    xf: freq = 3.981 MHz     (86 %), step = 1.469 MHz       (2 %)
    xf: freq = 6.31 MHz      (88 %), step = 2.329 MHz       (2 %)
    xf: freq = 10 MHz        (90 %), step = 3.69 MHz        (2 %)
    xf: freq = 15.85 MHz     (92 %), step = 5.849 MHz       (2 %)
    xf: freq = 25.12 MHz     (94 %), step = 9.27 MHz        (2 %)
    xf: freq = 39.81 MHz     (96 %), step = 14.69 MHz       (2 %)
    xf: freq = 63.1 MHz      (98 %), step = 23.29 MHz       (2 %)
    xf: freq = 100 MHz      (100 %), step = 36.9 MHz        (2 %)
Accumulated DC solution time =            0 s.
Intrinsic xf analysis time =              8.00395 ms.
Total time required for xf analysis `xf': CPU = 7.3 ms, elapsed = 8.24499 ms, util. = 88.5%.
Time accumulated: CPU = 819.914 ms, elapsed = 1.45783 s.
Peak resident memory used = 202 Mbytes.


Notice from spectre during XF analysis `xf', during Monte Carlo analysis `mc1'.
    34 warnings suppressed.

modelParameter: writing model parameter values to rawfile.

Opening the PSF file ../psf/mc1_separate/020/modelParameter.info ...
element: writing instance parameter values to rawfile.

Opening the PSF file ../psf/mc1_separate/020/element.info ...
outputParameter: writing output parameter values to rawfile.

Opening the PSF file ../psf/mc1_separate/020/outputParameter.info ...
designParamVals: writing netlist parameters to rawfile.

Opening the PSFASCII file ../psf/mc1_separate/020/designParamVals.info ...
primitives: writing primitives to rawfile.

Opening the PSFASCII file ../psf/mc1_separate/020/primitives.info.primitives ...
subckts: writing subcircuits to rawfile.

Opening the PSFASCII file ../psf/mc1_separate/020/subckts.info.subckts ...
    mc1: iteration = 20            (50 %), step = 1            (8.33 %)
21  58.33% 

*****************************************************************************************
* 
* INFO: AMS_processOption = C35B4C3
* 
* INFO: Valid Modules  PIP VG5 HIRES
* 
*****************************************************************************************


***********************************************************
Transfer Function Analysis `xf': freq = (10 mHz -> 100 MHz)
***********************************************************

Opening the PSF file ../psf/mc1_separate/021/xf.xf ...

Notice from spectre at freq = 0 Hz during DC analysis, during XF analysis `xf', during Monte Carlo analysis `mc1'.
    Bad pivoting is found during DC analysis. Option dc_pivot_check=yes is recommended for possible improvement of convergence.
Warning from spectre at freq = 0 Hz during check, during DC analysis, during XF analysis `xf', during Monte Carlo analysis `mc1'.
    WARNING (CMI-2943): Parameter checks have been ignored because the valid value for parameter 'trise' could not be found in 'C1'.
    WARNING (CMI-2943): Parameter checks have been ignored because the valid value for parameter 'trise' could not be found in 'I0.R2.CM'.
    WARNING (CMI-2943): Parameter checks have been ignored because the valid value for parameter 'trise' could not be found in 'I0.R2.CS1'.
    WARNING (CMI-2943): Parameter checks have been ignored because the valid value for parameter 'trise' could not be found in 'I0.R2.CS0'.
    WARNING (CMI-2943): Parameter checks have been ignored because the valid value for parameter 'trise' could not be found in 'I0.C8<3>.C1'.
        Further occurrences of this warning will be suppressed.

Convergence achieved in 29 iterations.
DC simulation time: CPU = 3.206 ms, elapsed = 3.35503 ms.
    xf: freq = 25.12 mHz      (4 %), step = 9.27 mHz        (2 %)
    xf: freq = 39.81 mHz      (6 %), step = 14.69 mHz       (2 %)
    xf: freq = 63.1 mHz       (8 %), step = 23.29 mHz       (2 %)
    xf: freq = 100 mHz       (10 %), step = 36.9 mHz        (2 %)
    xf: freq = 158.5 mHz     (12 %), step = 58.49 mHz       (2 %)
    xf: freq = 251.2 mHz     (14 %), step = 92.7 mHz        (2 %)
    xf: freq = 398.1 mHz     (16 %), step = 146.9 mHz       (2 %)
    xf: freq = 631 mHz       (18 %), step = 232.9 mHz       (2 %)
    xf: freq = 1 Hz          (20 %), step = 369 mHz         (2 %)
    xf: freq = 1.585 Hz      (22 %), step = 584.9 mHz       (2 %)
    xf: freq = 2.512 Hz      (24 %), step = 927 mHz         (2 %)
    xf: freq = 3.981 Hz      (26 %), step = 1.469 Hz        (2 %)
    xf: freq = 6.31 Hz       (28 %), step = 2.329 Hz        (2 %)
    xf: freq = 10 Hz         (30 %), step = 3.69 Hz         (2 %)
    xf: freq = 15.85 Hz      (32 %), step = 5.849 Hz        (2 %)
    xf: freq = 25.12 Hz      (34 %), step = 9.27 Hz         (2 %)
    xf: freq = 39.81 Hz      (36 %), step = 14.69 Hz        (2 %)
    xf: freq = 63.1 Hz       (38 %), step = 23.29 Hz        (2 %)
    xf: freq = 100 Hz        (40 %), step = 36.9 Hz         (2 %)
    xf: freq = 158.5 Hz      (42 %), step = 58.49 Hz        (2 %)
    xf: freq = 251.2 Hz      (44 %), step = 92.7 Hz         (2 %)
    xf: freq = 398.1 Hz      (46 %), step = 146.9 Hz        (2 %)
    xf: freq = 631 Hz        (48 %), step = 232.9 Hz        (2 %)
    xf: freq = 1 kHz         (50 %), step = 369 Hz          (2 %)
    xf: freq = 1.585 kHz     (52 %), step = 584.9 Hz        (2 %)
    xf: freq = 2.512 kHz     (54 %), step = 927 Hz          (2 %)
    xf: freq = 3.981 kHz     (56 %), step = 1.469 kHz       (2 %)
    xf: freq = 6.31 kHz      (58 %), step = 2.329 kHz       (2 %)
    xf: freq = 10 kHz        (60 %), step = 3.69 kHz        (2 %)
    xf: freq = 15.85 kHz     (62 %), step = 5.849 kHz       (2 %)
    xf: freq = 25.12 kHz     (64 %), step = 9.27 kHz        (2 %)
    xf: freq = 39.81 kHz     (66 %), step = 14.69 kHz       (2 %)
    xf: freq = 63.1 kHz      (68 %), step = 23.29 kHz       (2 %)
    xf: freq = 100 kHz       (70 %), step = 36.9 kHz        (2 %)
    xf: freq = 158.5 kHz     (72 %), step = 58.49 kHz       (2 %)
    xf: freq = 251.2 kHz     (74 %), step = 92.7 kHz        (2 %)
    xf: freq = 398.1 kHz     (76 %), step = 146.9 kHz       (2 %)
    xf: freq = 631 kHz       (78 %), step = 232.9 kHz       (2 %)
    xf: freq = 1 MHz         (80 %), step = 369 kHz         (2 %)
    xf: freq = 1.585 MHz     (82 %), step = 584.9 kHz       (2 %)
    xf: freq = 2.512 MHz     (84 %), step = 927 kHz         (2 %)
    xf: freq = 3.981 MHz     (86 %), step = 1.469 MHz       (2 %)
    xf: freq = 6.31 MHz      (88 %), step = 2.329 MHz       (2 %)
    xf: freq = 10 MHz        (90 %), step = 3.69 MHz        (2 %)
    xf: freq = 15.85 MHz     (92 %), step = 5.849 MHz       (2 %)
    xf: freq = 25.12 MHz     (94 %), step = 9.27 MHz        (2 %)
    xf: freq = 39.81 MHz     (96 %), step = 14.69 MHz       (2 %)
    xf: freq = 63.1 MHz      (98 %), step = 23.29 MHz       (2 %)
    xf: freq = 100 MHz      (100 %), step = 36.9 MHz        (2 %)
Accumulated DC solution time =            953.674 ns.
Intrinsic xf analysis time =              9.727 ms.
Total time required for xf analysis `xf': CPU = 9.028 ms, elapsed = 10.0269 ms, util. = 90%.
Time accumulated: CPU = 863.634 ms, elapsed = 1.51236 s.
Peak resident memory used = 202 Mbytes.


Notice from spectre during XF analysis `xf', during Monte Carlo analysis `mc1'.
    34 warnings suppressed.

modelParameter: writing model parameter values to rawfile.

Opening the PSF file ../psf/mc1_separate/021/modelParameter.info ...
element: writing instance parameter values to rawfile.

Opening the PSF file ../psf/mc1_separate/021/element.info ...
outputParameter: writing output parameter values to rawfile.

Opening the PSF file ../psf/mc1_separate/021/outputParameter.info ...
designParamVals: writing netlist parameters to rawfile.

Opening the PSFASCII file ../psf/mc1_separate/021/designParamVals.info ...
primitives: writing primitives to rawfile.

Opening the PSFASCII file ../psf/mc1_separate/021/primitives.info.primitives ...
subckts: writing subcircuits to rawfile.

Opening the PSFASCII file ../psf/mc1_separate/021/subckts.info.subckts ...
    mc1: iteration = 21          (58.3 %), step = 1            (8.33 %)
22  66.67% 

*****************************************************************************************
* 
* INFO: AMS_processOption = C35B4C3
* 
* INFO: Valid Modules  PIP VG5 HIRES
* 
*****************************************************************************************


***********************************************************
Transfer Function Analysis `xf': freq = (10 mHz -> 100 MHz)
***********************************************************

Opening the PSF file ../psf/mc1_separate/022/xf.xf ...

Warning from spectre at freq = 0 Hz during check, during DC analysis, during XF analysis `xf', during Monte Carlo analysis `mc1'.
    WARNING (CMI-2943): Parameter checks have been ignored because the valid value for parameter 'trise' could not be found in 'C1'.
    WARNING (CMI-2943): Parameter checks have been ignored because the valid value for parameter 'trise' could not be found in 'I0.R2.CM'.
    WARNING (CMI-2943): Parameter checks have been ignored because the valid value for parameter 'trise' could not be found in 'I0.R2.CS1'.
    WARNING (CMI-2943): Parameter checks have been ignored because the valid value for parameter 'trise' could not be found in 'I0.R2.CS0'.
    WARNING (CMI-2943): Parameter checks have been ignored because the valid value for parameter 'trise' could not be found in 'I0.C8<3>.C1'.
        Further occurrences of this warning will be suppressed.

Convergence achieved in 18 iterations.
DC simulation time: CPU = 2.081 ms, elapsed = 2.08092 ms.
    xf: freq = 25.12 mHz      (4 %), step = 9.27 mHz        (2 %)
    xf: freq = 39.81 mHz      (6 %), step = 14.69 mHz       (2 %)
    xf: freq = 63.1 mHz       (8 %), step = 23.29 mHz       (2 %)
    xf: freq = 100 mHz       (10 %), step = 36.9 mHz        (2 %)
    xf: freq = 158.5 mHz     (12 %), step = 58.49 mHz       (2 %)
    xf: freq = 251.2 mHz     (14 %), step = 92.7 mHz        (2 %)
    xf: freq = 398.1 mHz     (16 %), step = 146.9 mHz       (2 %)
    xf: freq = 631 mHz       (18 %), step = 232.9 mHz       (2 %)
    xf: freq = 1 Hz          (20 %), step = 369 mHz         (2 %)
    xf: freq = 1.585 Hz      (22 %), step = 584.9 mHz       (2 %)
    xf: freq = 2.512 Hz      (24 %), step = 927 mHz         (2 %)
    xf: freq = 3.981 Hz      (26 %), step = 1.469 Hz        (2 %)
    xf: freq = 6.31 Hz       (28 %), step = 2.329 Hz        (2 %)
    xf: freq = 10 Hz         (30 %), step = 3.69 Hz         (2 %)
    xf: freq = 15.85 Hz      (32 %), step = 5.849 Hz        (2 %)
    xf: freq = 25.12 Hz      (34 %), step = 9.27 Hz         (2 %)
    xf: freq = 39.81 Hz      (36 %), step = 14.69 Hz        (2 %)
    xf: freq = 63.1 Hz       (38 %), step = 23.29 Hz        (2 %)
    xf: freq = 100 Hz        (40 %), step = 36.9 Hz         (2 %)
    xf: freq = 158.5 Hz      (42 %), step = 58.49 Hz        (2 %)
    xf: freq = 251.2 Hz      (44 %), step = 92.7 Hz         (2 %)
    xf: freq = 398.1 Hz      (46 %), step = 146.9 Hz        (2 %)
    xf: freq = 631 Hz        (48 %), step = 232.9 Hz        (2 %)
    xf: freq = 1 kHz         (50 %), step = 369 Hz          (2 %)
    xf: freq = 1.585 kHz     (52 %), step = 584.9 Hz        (2 %)
    xf: freq = 2.512 kHz     (54 %), step = 927 Hz          (2 %)
    xf: freq = 3.981 kHz     (56 %), step = 1.469 kHz       (2 %)
    xf: freq = 6.31 kHz      (58 %), step = 2.329 kHz       (2 %)
    xf: freq = 10 kHz        (60 %), step = 3.69 kHz        (2 %)
    xf: freq = 15.85 kHz     (62 %), step = 5.849 kHz       (2 %)
    xf: freq = 25.12 kHz     (64 %), step = 9.27 kHz        (2 %)
    xf: freq = 39.81 kHz     (66 %), step = 14.69 kHz       (2 %)
    xf: freq = 63.1 kHz      (68 %), step = 23.29 kHz       (2 %)
    xf: freq = 100 kHz       (70 %), step = 36.9 kHz        (2 %)
    xf: freq = 158.5 kHz     (72 %), step = 58.49 kHz       (2 %)
    xf: freq = 251.2 kHz     (74 %), step = 92.7 kHz        (2 %)
    xf: freq = 398.1 kHz     (76 %), step = 146.9 kHz       (2 %)
    xf: freq = 631 kHz       (78 %), step = 232.9 kHz       (2 %)
    xf: freq = 1 MHz         (80 %), step = 369 kHz         (2 %)
    xf: freq = 1.585 MHz     (82 %), step = 584.9 kHz       (2 %)
    xf: freq = 2.512 MHz     (84 %), step = 927 kHz         (2 %)
    xf: freq = 3.981 MHz     (86 %), step = 1.469 MHz       (2 %)
    xf: freq = 6.31 MHz      (88 %), step = 2.329 MHz       (2 %)
    xf: freq = 10 MHz        (90 %), step = 3.69 MHz        (2 %)
    xf: freq = 15.85 MHz     (92 %), step = 5.849 MHz       (2 %)
    xf: freq = 25.12 MHz     (94 %), step = 9.27 MHz        (2 %)
    xf: freq = 39.81 MHz     (96 %), step = 14.69 MHz       (2 %)
    xf: freq = 63.1 MHz      (98 %), step = 23.29 MHz       (2 %)
    xf: freq = 100 MHz      (100 %), step = 36.9 MHz        (2 %)
Accumulated DC solution time =            0 s.
Intrinsic xf analysis time =              7.78985 ms.
Total time required for xf analysis `xf': CPU = 7.484 ms, elapsed = 8.05688 ms, util. = 92.9%.
Time accumulated: CPU = 907.529 ms, elapsed = 1.56556 s.
Peak resident memory used = 202 Mbytes.


Notice from spectre during XF analysis `xf', during Monte Carlo analysis `mc1'.
    34 warnings suppressed.

modelParameter: writing model parameter values to rawfile.

Opening the PSF file ../psf/mc1_separate/022/modelParameter.info ...
element: writing instance parameter values to rawfile.

Opening the PSF file ../psf/mc1_separate/022/element.info ...
outputParameter: writing output parameter values to rawfile.

Opening the PSF file ../psf/mc1_separate/022/outputParameter.info ...
designParamVals: writing netlist parameters to rawfile.

Opening the PSFASCII file ../psf/mc1_separate/022/designParamVals.info ...
primitives: writing primitives to rawfile.

Opening the PSFASCII file ../psf/mc1_separate/022/primitives.info.primitives ...
subckts: writing subcircuits to rawfile.

Opening the PSFASCII file ../psf/mc1_separate/022/subckts.info.subckts ...
    mc1: iteration = 22          (66.7 %), step = 1            (8.33 %)
23  75.00% 

*****************************************************************************************
* 
* INFO: AMS_processOption = C35B4C3
* 
* INFO: Valid Modules  PIP VG5 HIRES
* 
*****************************************************************************************


***********************************************************
Transfer Function Analysis `xf': freq = (10 mHz -> 100 MHz)
***********************************************************

Opening the PSF file ../psf/mc1_separate/023/xf.xf ...

Notice from spectre at freq = 0 Hz during DC analysis, during XF analysis `xf', during Monte Carlo analysis `mc1'.
    Bad pivoting is found during DC analysis. Option dc_pivot_check=yes is recommended for possible improvement of convergence.
Warning from spectre at freq = 0 Hz during check, during DC analysis, during XF analysis `xf', during Monte Carlo analysis `mc1'.
    WARNING (CMI-2943): Parameter checks have been ignored because the valid value for parameter 'trise' could not be found in 'C1'.
    WARNING (CMI-2943): Parameter checks have been ignored because the valid value for parameter 'trise' could not be found in 'I0.R2.CM'.
    WARNING (CMI-2943): Parameter checks have been ignored because the valid value for parameter 'trise' could not be found in 'I0.R2.CS1'.
    WARNING (CMI-2943): Parameter checks have been ignored because the valid value for parameter 'trise' could not be found in 'I0.R2.CS0'.
    WARNING (CMI-2943): Parameter checks have been ignored because the valid value for parameter 'trise' could not be found in 'I0.C8<3>.C1'.
        Further occurrences of this warning will be suppressed.

Convergence achieved in 18 iterations.
DC simulation time: CPU = 2.012 ms, elapsed = 2.01297 ms.
    xf: freq = 25.12 mHz      (4 %), step = 9.27 mHz        (2 %)
    xf: freq = 39.81 mHz      (6 %), step = 14.69 mHz       (2 %)
    xf: freq = 63.1 mHz       (8 %), step = 23.29 mHz       (2 %)
    xf: freq = 100 mHz       (10 %), step = 36.9 mHz        (2 %)
    xf: freq = 158.5 mHz     (12 %), step = 58.49 mHz       (2 %)
    xf: freq = 251.2 mHz     (14 %), step = 92.7 mHz        (2 %)
    xf: freq = 398.1 mHz     (16 %), step = 146.9 mHz       (2 %)
    xf: freq = 631 mHz       (18 %), step = 232.9 mHz       (2 %)
    xf: freq = 1 Hz          (20 %), step = 369 mHz         (2 %)
    xf: freq = 1.585 Hz      (22 %), step = 584.9 mHz       (2 %)
    xf: freq = 2.512 Hz      (24 %), step = 927 mHz         (2 %)
    xf: freq = 3.981 Hz      (26 %), step = 1.469 Hz        (2 %)
    xf: freq = 6.31 Hz       (28 %), step = 2.329 Hz        (2 %)
    xf: freq = 10 Hz         (30 %), step = 3.69 Hz         (2 %)
    xf: freq = 15.85 Hz      (32 %), step = 5.849 Hz        (2 %)
    xf: freq = 25.12 Hz      (34 %), step = 9.27 Hz         (2 %)
    xf: freq = 39.81 Hz      (36 %), step = 14.69 Hz        (2 %)
    xf: freq = 63.1 Hz       (38 %), step = 23.29 Hz        (2 %)
    xf: freq = 100 Hz        (40 %), step = 36.9 Hz         (2 %)
    xf: freq = 158.5 Hz      (42 %), step = 58.49 Hz        (2 %)
    xf: freq = 251.2 Hz      (44 %), step = 92.7 Hz         (2 %)
    xf: freq = 398.1 Hz      (46 %), step = 146.9 Hz        (2 %)
    xf: freq = 631 Hz        (48 %), step = 232.9 Hz        (2 %)
    xf: freq = 1 kHz         (50 %), step = 369 Hz          (2 %)
    xf: freq = 1.585 kHz     (52 %), step = 584.9 Hz        (2 %)
    xf: freq = 2.512 kHz     (54 %), step = 927 Hz          (2 %)
    xf: freq = 3.981 kHz     (56 %), step = 1.469 kHz       (2 %)
    xf: freq = 6.31 kHz      (58 %), step = 2.329 kHz       (2 %)
    xf: freq = 10 kHz        (60 %), step = 3.69 kHz        (2 %)
    xf: freq = 15.85 kHz     (62 %), step = 5.849 kHz       (2 %)
    xf: freq = 25.12 kHz     (64 %), step = 9.27 kHz        (2 %)
    xf: freq = 39.81 kHz     (66 %), step = 14.69 kHz       (2 %)
    xf: freq = 63.1 kHz      (68 %), step = 23.29 kHz       (2 %)
    xf: freq = 100 kHz       (70 %), step = 36.9 kHz        (2 %)
    xf: freq = 158.5 kHz     (72 %), step = 58.49 kHz       (2 %)
    xf: freq = 251.2 kHz     (74 %), step = 92.7 kHz        (2 %)
    xf: freq = 398.1 kHz     (76 %), step = 146.9 kHz       (2 %)
    xf: freq = 631 kHz       (78 %), step = 232.9 kHz       (2 %)
    xf: freq = 1 MHz         (80 %), step = 369 kHz         (2 %)
    xf: freq = 1.585 MHz     (82 %), step = 584.9 kHz       (2 %)
    xf: freq = 2.512 MHz     (84 %), step = 927 kHz         (2 %)
    xf: freq = 3.981 MHz     (86 %), step = 1.469 MHz       (2 %)
    xf: freq = 6.31 MHz      (88 %), step = 2.329 MHz       (2 %)
    xf: freq = 10 MHz        (90 %), step = 3.69 MHz        (2 %)
    xf: freq = 15.85 MHz     (92 %), step = 5.849 MHz       (2 %)
    xf: freq = 25.12 MHz     (94 %), step = 9.27 MHz        (2 %)
    xf: freq = 39.81 MHz     (96 %), step = 14.69 MHz       (2 %)
    xf: freq = 63.1 MHz      (98 %), step = 23.29 MHz       (2 %)
    xf: freq = 100 MHz      (100 %), step = 36.9 MHz        (2 %)
Accumulated DC solution time =            0 s.
Intrinsic xf analysis time =              7.85685 ms.
Total time required for xf analysis `xf': CPU = 7.231 ms, elapsed = 8.06808 ms, util. = 89.6%.
Time accumulated: CPU = 946.852 ms, elapsed = 1.6143 s.
Peak resident memory used = 202 Mbytes.


Notice from spectre during XF analysis `xf', during Monte Carlo analysis `mc1'.
    34 warnings suppressed.

modelParameter: writing model parameter values to rawfile.

Opening the PSF file ../psf/mc1_separate/023/modelParameter.info ...
element: writing instance parameter values to rawfile.

Opening the PSF file ../psf/mc1_separate/023/element.info ...
outputParameter: writing output parameter values to rawfile.

Opening the PSF file ../psf/mc1_separate/023/outputParameter.info ...
designParamVals: writing netlist parameters to rawfile.

Opening the PSFASCII file ../psf/mc1_separate/023/designParamVals.info ...
primitives: writing primitives to rawfile.

Opening the PSFASCII file ../psf/mc1_separate/023/primitives.info.primitives ...
subckts: writing subcircuits to rawfile.

Opening the PSFASCII file ../psf/mc1_separate/023/subckts.info.subckts ...
    mc1: iteration = 23            (75 %), step = 1            (8.33 %)
24  83.33% 

*****************************************************************************************
* 
* INFO: AMS_processOption = C35B4C3
* 
* INFO: Valid Modules  PIP VG5 HIRES
* 
*****************************************************************************************


***********************************************************
Transfer Function Analysis `xf': freq = (10 mHz -> 100 MHz)
***********************************************************

Opening the PSF file ../psf/mc1_separate/024/xf.xf ...

Warning from spectre at freq = 0 Hz during check, during DC analysis, during XF analysis `xf', during Monte Carlo analysis `mc1'.
    WARNING (CMI-2943): Parameter checks have been ignored because the valid value for parameter 'trise' could not be found in 'C1'.
    WARNING (CMI-2943): Parameter checks have been ignored because the valid value for parameter 'trise' could not be found in 'I0.R2.CM'.
    WARNING (CMI-2943): Parameter checks have been ignored because the valid value for parameter 'trise' could not be found in 'I0.R2.CS1'.
    WARNING (CMI-2943): Parameter checks have been ignored because the valid value for parameter 'trise' could not be found in 'I0.R2.CS0'.
    WARNING (CMI-2943): Parameter checks have been ignored because the valid value for parameter 'trise' could not be found in 'I0.C8<3>.C1'.
        Further occurrences of this warning will be suppressed.

Convergence achieved in 17 iterations.
DC simulation time: CPU = 1.803 ms, elapsed = 1.80292 ms.
    xf: freq = 25.12 mHz      (4 %), step = 9.27 mHz        (2 %)
    xf: freq = 39.81 mHz      (6 %), step = 14.69 mHz       (2 %)
    xf: freq = 63.1 mHz       (8 %), step = 23.29 mHz       (2 %)
    xf: freq = 100 mHz       (10 %), step = 36.9 mHz        (2 %)
    xf: freq = 158.5 mHz     (12 %), step = 58.49 mHz       (2 %)
    xf: freq = 251.2 mHz     (14 %), step = 92.7 mHz        (2 %)
    xf: freq = 398.1 mHz     (16 %), step = 146.9 mHz       (2 %)
    xf: freq = 631 mHz       (18 %), step = 232.9 mHz       (2 %)
    xf: freq = 1 Hz          (20 %), step = 369 mHz         (2 %)
    xf: freq = 1.585 Hz      (22 %), step = 584.9 mHz       (2 %)
    xf: freq = 2.512 Hz      (24 %), step = 927 mHz         (2 %)
    xf: freq = 3.981 Hz      (26 %), step = 1.469 Hz        (2 %)
    xf: freq = 6.31 Hz       (28 %), step = 2.329 Hz        (2 %)
    xf: freq = 10 Hz         (30 %), step = 3.69 Hz         (2 %)
    xf: freq = 15.85 Hz      (32 %), step = 5.849 Hz        (2 %)
    xf: freq = 25.12 Hz      (34 %), step = 9.27 Hz         (2 %)
    xf: freq = 39.81 Hz      (36 %), step = 14.69 Hz        (2 %)
    xf: freq = 63.1 Hz       (38 %), step = 23.29 Hz        (2 %)
    xf: freq = 100 Hz        (40 %), step = 36.9 Hz         (2 %)
    xf: freq = 158.5 Hz      (42 %), step = 58.49 Hz        (2 %)
    xf: freq = 251.2 Hz      (44 %), step = 92.7 Hz         (2 %)
    xf: freq = 398.1 Hz      (46 %), step = 146.9 Hz        (2 %)
    xf: freq = 631 Hz        (48 %), step = 232.9 Hz        (2 %)
    xf: freq = 1 kHz         (50 %), step = 369 Hz          (2 %)
    xf: freq = 1.585 kHz     (52 %), step = 584.9 Hz        (2 %)
    xf: freq = 2.512 kHz     (54 %), step = 927 Hz          (2 %)
    xf: freq = 3.981 kHz     (56 %), step = 1.469 kHz       (2 %)
    xf: freq = 6.31 kHz      (58 %), step = 2.329 kHz       (2 %)
    xf: freq = 10 kHz        (60 %), step = 3.69 kHz        (2 %)
    xf: freq = 15.85 kHz     (62 %), step = 5.849 kHz       (2 %)
    xf: freq = 25.12 kHz     (64 %), step = 9.27 kHz        (2 %)
    xf: freq = 39.81 kHz     (66 %), step = 14.69 kHz       (2 %)
    xf: freq = 63.1 kHz      (68 %), step = 23.29 kHz       (2 %)
    xf: freq = 100 kHz       (70 %), step = 36.9 kHz        (2 %)
    xf: freq = 158.5 kHz     (72 %), step = 58.49 kHz       (2 %)
    xf: freq = 251.2 kHz     (74 %), step = 92.7 kHz        (2 %)
    xf: freq = 398.1 kHz     (76 %), step = 146.9 kHz       (2 %)
    xf: freq = 631 kHz       (78 %), step = 232.9 kHz       (2 %)
    xf: freq = 1 MHz         (80 %), step = 369 kHz         (2 %)
    xf: freq = 1.585 MHz     (82 %), step = 584.9 kHz       (2 %)
    xf: freq = 2.512 MHz     (84 %), step = 927 kHz         (2 %)
    xf: freq = 3.981 MHz     (86 %), step = 1.469 MHz       (2 %)
    xf: freq = 6.31 MHz      (88 %), step = 2.329 MHz       (2 %)
    xf: freq = 10 MHz        (90 %), step = 3.69 MHz        (2 %)
    xf: freq = 15.85 MHz     (92 %), step = 5.849 MHz       (2 %)
    xf: freq = 25.12 MHz     (94 %), step = 9.27 MHz        (2 %)
    xf: freq = 39.81 MHz     (96 %), step = 14.69 MHz       (2 %)
    xf: freq = 63.1 MHz      (98 %), step = 23.29 MHz       (2 %)
    xf: freq = 100 MHz      (100 %), step = 36.9 MHz        (2 %)
Accumulated DC solution time =            1.19209 us.
Intrinsic xf analysis time =              7.65181 ms.
Total time required for xf analysis `xf': CPU = 6.934 ms, elapsed = 7.84492 ms, util. = 88.4%.
Time accumulated: CPU = 985.087 ms, elapsed = 1.66132 s.
Peak resident memory used = 202 Mbytes.


Notice from spectre during XF analysis `xf', during Monte Carlo analysis `mc1'.
    34 warnings suppressed.

modelParameter: writing model parameter values to rawfile.

Opening the PSF file ../psf/mc1_separate/024/modelParameter.info ...
element: writing instance parameter values to rawfile.

Opening the PSF file ../psf/mc1_separate/024/element.info ...
outputParameter: writing output parameter values to rawfile.

Opening the PSF file ../psf/mc1_separate/024/outputParameter.info ...
designParamVals: writing netlist parameters to rawfile.

Opening the PSFASCII file ../psf/mc1_separate/024/designParamVals.info ...
primitives: writing primitives to rawfile.

Opening the PSFASCII file ../psf/mc1_separate/024/primitives.info.primitives ...
subckts: writing subcircuits to rawfile.

Opening the PSFASCII file ../psf/mc1_separate/024/subckts.info.subckts ...
    mc1: iteration = 24          (83.3 %), step = 1            (8.33 %)
25  91.67% 

*****************************************************************************************
* 
* INFO: AMS_processOption = C35B4C3
* 
* INFO: Valid Modules  PIP VG5 HIRES
* 
*****************************************************************************************


***********************************************************
Transfer Function Analysis `xf': freq = (10 mHz -> 100 MHz)
***********************************************************

Opening the PSF file ../psf/mc1_separate/025/xf.xf ...

Warning from spectre at freq = 0 Hz during check, during DC analysis, during XF analysis `xf', during Monte Carlo analysis `mc1'.
    WARNING (CMI-2943): Parameter checks have been ignored because the valid value for parameter 'trise' could not be found in 'C1'.
    WARNING (CMI-2943): Parameter checks have been ignored because the valid value for parameter 'trise' could not be found in 'I0.R2.CM'.
    WARNING (CMI-2943): Parameter checks have been ignored because the valid value for parameter 'trise' could not be found in 'I0.R2.CS1'.
    WARNING (CMI-2943): Parameter checks have been ignored because the valid value for parameter 'trise' could not be found in 'I0.R2.CS0'.
    WARNING (CMI-2943): Parameter checks have been ignored because the valid value for parameter 'trise' could not be found in 'I0.C8<3>.C1'.
        Further occurrences of this warning will be suppressed.

Convergence achieved in 20 iterations.
DC simulation time: CPU = 2.464 ms, elapsed = 2.47598 ms.
    xf: freq = 25.12 mHz      (4 %), step = 9.27 mHz        (2 %)
    xf: freq = 39.81 mHz      (6 %), step = 14.69 mHz       (2 %)
    xf: freq = 63.1 mHz       (8 %), step = 23.29 mHz       (2 %)
    xf: freq = 100 mHz       (10 %), step = 36.9 mHz        (2 %)
    xf: freq = 158.5 mHz     (12 %), step = 58.49 mHz       (2 %)
    xf: freq = 251.2 mHz     (14 %), step = 92.7 mHz        (2 %)
    xf: freq = 398.1 mHz     (16 %), step = 146.9 mHz       (2 %)
    xf: freq = 631 mHz       (18 %), step = 232.9 mHz       (2 %)
    xf: freq = 1 Hz          (20 %), step = 369 mHz         (2 %)
    xf: freq = 1.585 Hz      (22 %), step = 584.9 mHz       (2 %)
    xf: freq = 2.512 Hz      (24 %), step = 927 mHz         (2 %)
    xf: freq = 3.981 Hz      (26 %), step = 1.469 Hz        (2 %)
    xf: freq = 6.31 Hz       (28 %), step = 2.329 Hz        (2 %)
    xf: freq = 10 Hz         (30 %), step = 3.69 Hz         (2 %)
    xf: freq = 15.85 Hz      (32 %), step = 5.849 Hz        (2 %)
    xf: freq = 25.12 Hz      (34 %), step = 9.27 Hz         (2 %)
    xf: freq = 39.81 Hz      (36 %), step = 14.69 Hz        (2 %)
    xf: freq = 63.1 Hz       (38 %), step = 23.29 Hz        (2 %)
    xf: freq = 100 Hz        (40 %), step = 36.9 Hz         (2 %)
    xf: freq = 158.5 Hz      (42 %), step = 58.49 Hz        (2 %)
    xf: freq = 251.2 Hz      (44 %), step = 92.7 Hz         (2 %)
    xf: freq = 398.1 Hz      (46 %), step = 146.9 Hz        (2 %)
    xf: freq = 631 Hz        (48 %), step = 232.9 Hz        (2 %)
    xf: freq = 1 kHz         (50 %), step = 369 Hz          (2 %)
    xf: freq = 1.585 kHz     (52 %), step = 584.9 Hz        (2 %)
    xf: freq = 2.512 kHz     (54 %), step = 927 Hz          (2 %)
    xf: freq = 3.981 kHz     (56 %), step = 1.469 kHz       (2 %)
    xf: freq = 6.31 kHz      (58 %), step = 2.329 kHz       (2 %)
    xf: freq = 10 kHz        (60 %), step = 3.69 kHz        (2 %)
    xf: freq = 15.85 kHz     (62 %), step = 5.849 kHz       (2 %)
    xf: freq = 25.12 kHz     (64 %), step = 9.27 kHz        (2 %)
    xf: freq = 39.81 kHz     (66 %), step = 14.69 kHz       (2 %)
    xf: freq = 63.1 kHz      (68 %), step = 23.29 kHz       (2 %)
    xf: freq = 100 kHz       (70 %), step = 36.9 kHz        (2 %)
    xf: freq = 158.5 kHz     (72 %), step = 58.49 kHz       (2 %)
    xf: freq = 251.2 kHz     (74 %), step = 92.7 kHz        (2 %)
    xf: freq = 398.1 kHz     (76 %), step = 146.9 kHz       (2 %)
    xf: freq = 631 kHz       (78 %), step = 232.9 kHz       (2 %)
    xf: freq = 1 MHz         (80 %), step = 369 kHz         (2 %)
    xf: freq = 1.585 MHz     (82 %), step = 584.9 kHz       (2 %)
    xf: freq = 2.512 MHz     (84 %), step = 927 kHz         (2 %)
    xf: freq = 3.981 MHz     (86 %), step = 1.469 MHz       (2 %)
    xf: freq = 6.31 MHz      (88 %), step = 2.329 MHz       (2 %)
    xf: freq = 10 MHz        (90 %), step = 3.69 MHz        (2 %)
    xf: freq = 15.85 MHz     (92 %), step = 5.849 MHz       (2 %)
    xf: freq = 25.12 MHz     (94 %), step = 9.27 MHz        (2 %)
    xf: freq = 39.81 MHz     (96 %), step = 14.69 MHz       (2 %)
    xf: freq = 63.1 MHz      (98 %), step = 23.29 MHz       (2 %)
    xf: freq = 100 MHz      (100 %), step = 36.9 MHz        (2 %)
Accumulated DC solution time =            0 s.
Intrinsic xf analysis time =              8.3611 ms.
Total time required for xf analysis `xf': CPU = 8.039 ms, elapsed = 8.69203 ms, util. = 92.5%.
Time accumulated: CPU = 1.03508 s, elapsed = 1.72022 s.
Peak resident memory used = 202 Mbytes.


Notice from spectre during XF analysis `xf', during Monte Carlo analysis `mc1'.
    34 warnings suppressed.

modelParameter: writing model parameter values to rawfile.

Opening the PSF file ../psf/mc1_separate/025/modelParameter.info ...
element: writing instance parameter values to rawfile.

Opening the PSF file ../psf/mc1_separate/025/element.info ...
outputParameter: writing output parameter values to rawfile.

Opening the PSF file ../psf/mc1_separate/025/outputParameter.info ...
designParamVals: writing netlist parameters to rawfile.

Opening the PSFASCII file ../psf/mc1_separate/025/designParamVals.info ...
primitives: writing primitives to rawfile.

Opening the PSFASCII file ../psf/mc1_separate/025/primitives.info.primitives ...
subckts: writing subcircuits to rawfile.

Opening the PSFASCII file ../psf/mc1_separate/025/subckts.info.subckts ...
    mc1: iteration = 25          (91.7 %), step = 1            (8.33 %)
26 100.00% 

*****************************************************************************************
* 
* INFO: AMS_processOption = C35B4C3
* 
* INFO: Valid Modules  PIP VG5 HIRES
* 
*****************************************************************************************


***********************************************************
Transfer Function Analysis `xf': freq = (10 mHz -> 100 MHz)
***********************************************************

Opening the PSF file ../psf/mc1_separate/026/xf.xf ...

Warning from spectre at freq = 0 Hz during check, during DC analysis, during XF analysis `xf', during Monte Carlo analysis `mc1'.
    WARNING (CMI-2943): Parameter checks have been ignored because the valid value for parameter 'trise' could not be found in 'C1'.
    WARNING (CMI-2943): Parameter checks have been ignored because the valid value for parameter 'trise' could not be found in 'I0.R2.CM'.
    WARNING (CMI-2943): Parameter checks have been ignored because the valid value for parameter 'trise' could not be found in 'I0.R2.CS1'.
    WARNING (CMI-2943): Parameter checks have been ignored because the valid value for parameter 'trise' could not be found in 'I0.R2.CS0'.
    WARNING (CMI-2943): Parameter checks have been ignored because the valid value for parameter 'trise' could not be found in 'I0.C8<3>.C1'.
        Further occurrences of this warning will be suppressed.

Convergence achieved in 19 iterations.
DC simulation time: CPU = 2.017 ms, elapsed = 2.02608 ms.
    xf: freq = 25.12 mHz      (4 %), step = 9.27 mHz        (2 %)
    xf: freq = 39.81 mHz      (6 %), step = 14.69 mHz       (2 %)
    xf: freq = 63.1 mHz       (8 %), step = 23.29 mHz       (2 %)
    xf: freq = 100 mHz       (10 %), step = 36.9 mHz        (2 %)
    xf: freq = 158.5 mHz     (12 %), step = 58.49 mHz       (2 %)
    xf: freq = 251.2 mHz     (14 %), step = 92.7 mHz        (2 %)
    xf: freq = 398.1 mHz     (16 %), step = 146.9 mHz       (2 %)
    xf: freq = 631 mHz       (18 %), step = 232.9 mHz       (2 %)
    xf: freq = 1 Hz          (20 %), step = 369 mHz         (2 %)
    xf: freq = 1.585 Hz      (22 %), step = 584.9 mHz       (2 %)
    xf: freq = 2.512 Hz      (24 %), step = 927 mHz         (2 %)
    xf: freq = 3.981 Hz      (26 %), step = 1.469 Hz        (2 %)
    xf: freq = 6.31 Hz       (28 %), step = 2.329 Hz        (2 %)
    xf: freq = 10 Hz         (30 %), step = 3.69 Hz         (2 %)
    xf: freq = 15.85 Hz      (32 %), step = 5.849 Hz        (2 %)
    xf: freq = 25.12 Hz      (34 %), step = 9.27 Hz         (2 %)
    xf: freq = 39.81 Hz      (36 %), step = 14.69 Hz        (2 %)
    xf: freq = 63.1 Hz       (38 %), step = 23.29 Hz        (2 %)
    xf: freq = 100 Hz        (40 %), step = 36.9 Hz         (2 %)
    xf: freq = 158.5 Hz      (42 %), step = 58.49 Hz        (2 %)
    xf: freq = 251.2 Hz      (44 %), step = 92.7 Hz         (2 %)
    xf: freq = 398.1 Hz      (46 %), step = 146.9 Hz        (2 %)
    xf: freq = 631 Hz        (48 %), step = 232.9 Hz        (2 %)
    xf: freq = 1 kHz         (50 %), step = 369 Hz          (2 %)
    xf: freq = 1.585 kHz     (52 %), step = 584.9 Hz        (2 %)
    xf: freq = 2.512 kHz     (54 %), step = 927 Hz          (2 %)
    xf: freq = 3.981 kHz     (56 %), step = 1.469 kHz       (2 %)
    xf: freq = 6.31 kHz      (58 %), step = 2.329 kHz       (2 %)
    xf: freq = 10 kHz        (60 %), step = 3.69 kHz        (2 %)
    xf: freq = 15.85 kHz     (62 %), step = 5.849 kHz       (2 %)
    xf: freq = 25.12 kHz     (64 %), step = 9.27 kHz        (2 %)
    xf: freq = 39.81 kHz     (66 %), step = 14.69 kHz       (2 %)
    xf: freq = 63.1 kHz      (68 %), step = 23.29 kHz       (2 %)
    xf: freq = 100 kHz       (70 %), step = 36.9 kHz        (2 %)
    xf: freq = 158.5 kHz     (72 %), step = 58.49 kHz       (2 %)
    xf: freq = 251.2 kHz     (74 %), step = 92.7 kHz        (2 %)
    xf: freq = 398.1 kHz     (76 %), step = 146.9 kHz       (2 %)
    xf: freq = 631 kHz       (78 %), step = 232.9 kHz       (2 %)
    xf: freq = 1 MHz         (80 %), step = 369 kHz         (2 %)
    xf: freq = 1.585 MHz     (82 %), step = 584.9 kHz       (2 %)
    xf: freq = 2.512 MHz     (84 %), step = 927 kHz         (2 %)
    xf: freq = 3.981 MHz     (86 %), step = 1.469 MHz       (2 %)
    xf: freq = 6.31 MHz      (88 %), step = 2.329 MHz       (2 %)
    xf: freq = 10 MHz        (90 %), step = 3.69 MHz        (2 %)
    xf: freq = 15.85 MHz     (92 %), step = 5.849 MHz       (2 %)
    xf: freq = 25.12 MHz     (94 %), step = 9.27 MHz        (2 %)
    xf: freq = 39.81 MHz     (96 %), step = 14.69 MHz       (2 %)
    xf: freq = 63.1 MHz      (98 %), step = 23.29 MHz       (2 %)
    xf: freq = 100 MHz      (100 %), step = 36.9 MHz        (2 %)
Accumulated DC solution time =            0 s.
Intrinsic xf analysis time =              7.63392 ms.
Total time required for xf analysis `xf': CPU = 7.126 ms, elapsed = 7.828 ms, util. = 91%.
Time accumulated: CPU = 1.07445 s, elapsed = 1.76782 s.
Peak resident memory used = 202 Mbytes.


Notice from spectre during XF analysis `xf', during Monte Carlo analysis `mc1'.
    34 warnings suppressed.

modelParameter: writing model parameter values to rawfile.

Opening the PSF file ../psf/mc1_separate/026/modelParameter.info ...
element: writing instance parameter values to rawfile.

Opening the PSF file ../psf/mc1_separate/026/element.info ...
outputParameter: writing output parameter values to rawfile.

Opening the PSF file ../psf/mc1_separate/026/outputParameter.info ...
designParamVals: writing netlist parameters to rawfile.

Opening the PSFASCII file ../psf/mc1_separate/026/designParamVals.info ...
primitives: writing primitives to rawfile.

Opening the PSFASCII file ../psf/mc1_separate/026/primitives.info.primitives ...
subckts: writing subcircuits to rawfile.

Opening the PSFASCII file ../psf/mc1_separate/026/subckts.info.subckts ...
    mc1: iteration = 26           (100 %), step = 1            (8.33 %)
Total time required for montecarlo analysis `mc1': CPU = 604.132 ms, elapsed = 731.689 ms, util. = 82.6%.
Time accumulated: CPU = 1.09433 s, elapsed = 1.79717 s.
Peak resident memory used = 202 Mbytes.

Licensing Information:
Lic Summary:
[08:28:00.214842] Cdslmd servers:3000@lic08.ug.kth.se:29000@lic06.ug.kth.se
[08:28:00.214921] Feature usage summary:
[08:28:00.214923] Virtuoso_Multi_mode_Simulation


Aggregate audit (8:28:00 AM, Thur Apr 16, 2026):
Time used: CPU = 1.11 s, elapsed = 1.81 s, util. = 61.1%.
Time spent in licensing: elapsed = 50.3 ms.
Peak memory used = 204 Mbytes.
Simulation started at: 8:27:58 AM, Thur Apr 16, 2026, ended at: 8:28:00 AM, Thur Apr 16, 2026, with elapsed time (wall clock): 1.81 s.
spectre completes with 0 errors, 87 warnings, and 24 notices.
