
Spectre (R) Circuit Simulator
Version 24.1.0.288.isr5 64bit -- 3 Apr 2025
Copyright (C) 1989-2025 Cadence Design Systems, Inc. All rights reserved worldwide. Cadence and Spectre are registered trademarks of Cadence Design Systems, Inc. All others are the property of their respective holders.

Includes RSA BSAFE(R) Cryptographic or Security Protocol Software from RSA Security, Inc.

User: davidevi   Host: il2244vt26_davidevi   HostID: 11AC2C00   PID: 994805
Memory  available: 3.0267 TB  physical: 3.2467 TB
Linux   : Rocky Linux release 8.10 (Green Obsidian)
CPU Type: Intel(R) Xeon(R) CPU E7-8857 v2 @ 3.00GHz
        Socket: Processors [Frequency]
        0:       0 [2999.9],  1 [2999.9],  2 [2999.9],  3 [3600.0],  4 [2600.0]
                 5 [2800.0],  6 [2999.9],  7 [3400.0],  8 [3600.0],  9 [3600.0]
                10 [1200.0], 11 [2999.9]
        1:      12 [3399.0], 13 [3399.6], 14 [3600.0], 15 [3393.0], 16 [3600.0]
                17 [3399.4], 18 [3600.0], 19 [3600.0], 20 [3393.0], 21 [3393.0]
                22 [3393.0], 23 [3393.0]
        2:      24 [1200.0], 25 [3399.9], 26 [3600.0], 27 [1200.0], 28 [3399.9]
                29 [3399.9], 30 [1200.0], 31 [3399.9], 32 [1200.0], 33 [3399.9]
                34 [3600.0], 35 [3399.9]
        3:      36 [3386.8], 37 [3600.0], 38 [3386.7], 39 [3369.0], 40 [3600.0]
                41 [3378.2], 42 [3371.5], 43 [3381.6], 44 [3600.0], 45 [3300.0]
                46 [3600.0], 47 [3386.8]
        
System load averages (1min, 5min, 15min) : 21.9 %, 18.9 %, 20.1 %
HPC is enabled


Simulating `input.scs' on il2244vt26_davidevi at 1:18:16 PM, Wed Apr 15, 2026 (process id: 994805).
Current working directory: /home/davidevi/Desktop/myproject/Sim/VGA/VGA_1_pss_tb/maestro/results/maestro/MonteCarlo.5/55/MC/groupRunDataDir/netlist
Command line:
    /opt/tools/cadence/installs/SPECTRE241/tools/bin/spectre -64  \
        input.scs +escchars +log ../psf/spectre.out -format psfbin  \
        +rtsf -raw ../psf +preset=cx +mt +lqtimeout 900 -maxw 5 -maxn 5  \
        +param /opt/pdk/ams/410/spectre/ams_range.lmts -env ade  \
        +adespetkn=0001089D13A302B663E41FB550AF0DF415A679A322D5069144BF588C12F604E07EF416DC01A319B562BB63D35BEA1DA345A305F93DCD3E8B79F94AFC5BE14F9245F179D15D9175FF34986BDD0AF002BA50FD7FD707E002A700AC1C8404FE5AE30EA979D118F874D3349879D118F874D33498100E88E0E4CB5D47000036D6  \
        -ahdllibdir  \
        /home/davidevi/Desktop/myproject/Sim/VGA/VGA_1_pss_tb/maestro/results/maestro/MonteCarlo.5/sharedData/lscsJob444/ahdl/input.ahdlSimDB  \
        +logstatus

Simulation Id: ipom1IMaJXxXBDqi
Licensing Information:
[13:18:16.121762] Configured Lic search path (24.01-s002): 3000@lic08.ug.kth.se:29000@lic06.ug.kth.se

Licensing Information:
[13:18:16.374874] Periodic Lic check successful

Loading /opt/tools/cadence/installs/SPECTRE241/tools.lnx86/cmi/lib/64bit/5.0/libinfineon_sh.so ...
Loading /opt/tools/cadence/installs/SPECTRE241/tools.lnx86/cmi/lib/64bit/5.0/libphilips_I_sh.so ...
Loading /opt/tools/cadence/installs/SPECTRE241/tools.lnx86/cmi/lib/64bit/5.0/libphilips_sh.so ...
Loading /opt/tools/cadence/installs/SPECTRE241/tools.lnx86/cmi/lib/64bit/5.0/libsparam_sh.so ...
Loading /opt/tools/cadence/installs/SPECTRE241/tools.lnx86/cmi/lib/64bit/5.0/libstmodels_sh.so ...

Warning from spectre.
    WARNING (SPECTRE-691): This CPU processor does not support x86 advanced vector extensions instructions. This may affect math operations and slow down the simulation.

Reading file:  /home/davidevi/Desktop/myproject/Sim/VGA/VGA_1_pss_tb/maestro/results/maestro/MonteCarlo.5/55/MC/groupRunDataDir/netlist/input.scs

Notice from spectre during circuit read-in.
    Pre_Configuration file used: /opt/tools/cadence/installs/SPECTRE241/tools.lnx86/spectre/etc/configs/preset.precfg
    Configuration file used: `/opt/tools/cadence/installs/SPECTRE241/tools.lnx86/spectre/etc/configs/preset.cfg'.

Reading file:  /opt/pdk/ams/410/spectre/ams_range.lmts

Warning from spectre during read of parameter soft limits file `/opt/pdk/ams/410/spectre/ams_range.lmts', during circuit read-in.
    WARNING (SPECTRE-8360): line 1511: `ac' is an undefined primitive device.
    WARNING (SPECTRE-8360): line 1512: `ac' is an undefined primitive device.
    WARNING (SPECTRE-8360): line 1513: `ac' is an undefined primitive device.
    WARNING (SPECTRE-8360): line 1514: `ac' is an undefined primitive device.
    WARNING (SPECTRE-8360): line 1515: `ac' is an undefined primitive device.
        Further occurrences of this warning will be suppressed.

Reading file:  /opt/tools/cadence/installs/SPECTRE241/tools.lnx86/spectre/etc/configs/spectre.cfg
Reading file:  /opt/tools/cadence/installs/SPECTRE241/tools.lnx86/spectre/etc/configs/preset.precfg
Reading file:  /opt/pdk/ams/410/spectre/c35/soac/soac.scs
Reading file:  /opt/pdk/ams/410/spectre/c35/processOption.scs
Reading file:  /opt/pdk/ams/410/spectre/c35/process.scs
Reading file:  /opt/pdk/ams/410/spectre/c35/processOption/C35B4C3.scs
Reading file:  /opt/pdk/ams/410/spectre/c35/cmos53.scs
Reading file:  /opt/pdk/ams/410/spectre/c35/res.scs
Reading file:  /opt/pdk/ams/410/spectre/c35/cap.scs
Reading file:  /opt/pdk/ams/410/spectre/c35/bip.scs
Reading file:  /opt/pdk/ams/410/spectre/c35/ind.scs
Reading file:  /opt/pdk/ams/410/spectre/c35/esddiode.scs
Reading link:  /home/davidevi/Desktop/myproject/Sim/VGA/VGA_1_pss_tb/maestro/results/maestro/MonteCarlo.5/55/MC/groupRunDataDir/netlist/netlist
Reading file:  /home/davidevi/Desktop/myproject/Sim/VGA/VGA_1_pss_tb/maestro/results/maestro/MonteCarlo.5/psf/MC/netlist/netlist
Reading file:  /opt/tools/cadence/installs/SPECTRE241/tools.lnx86/spectre/etc/configs/preset.cfg
Time for NDB Parsing: CPU = 213.999 ms, elapsed = 324.381 ms.
Time accumulated: CPU = 415.298 ms, elapsed = 324.383 ms.
Peak resident memory used = 179 Mbytes.

Reading link:  /opt/tools/cadence/installs/SPECTRE241/tools.lnx86/spectre/etc/ahdl/discipline.h
Reading file:  /opt/tools/cadence/installs/SPECTRE241/tools.lnx86/spectre/etc/ahdl/disciplines.vams
Reading link:  /opt/tools/cadence/installs/SPECTRE241/tools.lnx86/spectre/etc/ahdl/constants.h
Reading file:  /opt/tools/cadence/installs/SPECTRE241/tools.lnx86/spectre/etc/ahdl/constants.vams

Warning from spectre during AHDL read-in.
    WARNING (VACOMP-2435): The environment variable CDS_AHDLCMI_ENABLE is no longer supported. Therefore, the simulator will use the default compiled C code flow.

Created directory /home/davidevi/Desktop/myproject/Sim/VGA/VGA_1_pss_tb/maestro/results/maestro/MonteCarlo.5/sharedData/lscsJob444/ahdl/input.ahdlSimDB/input.ahdlSimDB/ (775)
Created directory /home/davidevi/Desktop/myproject/Sim/VGA/VGA_1_pss_tb/maestro/results/maestro/MonteCarlo.5/sharedData/lscsJob444/ahdl/input.ahdlSimDB/input.ahdlSimDB//bsource_fcab9d.va.bsource_fcab9d.ahdlcmi/ (775)
Reading file:  /home/davidevi/Desktop/myproject/Sim/ECG_IA/ecg_vga_tb/adexl/results/data/MonteCarlo.3/sharedData/Job173/ahdl/input.ahdlSimDB/input.ahdlSimDB/bsource_fcab9d.va.bsource_fcab9d.ahdlcmi/Linux-64/obj/optimize/5.0/libahdlcmi_bsource_fcab9d.so
Created directory /home/davidevi/Desktop/myproject/Sim/VGA/VGA_1_pss_tb/maestro/results/maestro/MonteCarlo.5/sharedData/lscsJob444/ahdl/input.ahdlSimDB/input.ahdlSimDB//bsource_fcab9d.va.bsource_fcab9d.ahdlcmi/Linux-64/obj/optimize/5.0 
Copying files from directory /home/davidevi/Desktop/myproject/Sim/ECG_IA/ecg_vga_tb/adexl/results/data/MonteCarlo.3/sharedData/Job173/ahdl/input.ahdlSimDB/input.ahdlSimDB/bsource_fcab9d.va.bsource_fcab9d.ahdlcmi/Linux-64/ to directory /home/davidevi/Desktop/myproject/Sim/VGA/VGA_1_pss_tb/maestro/results/maestro/MonteCarlo.5/sharedData/lscsJob444/ahdl/input.ahdlSimDB/input.ahdlSimDB//bsource_fcab9d.va.bsource_fcab9d.ahdlcmi/Linux-64/
Finished copying files from /home/davidevi/Desktop/myproject/Sim/ECG_IA/ecg_vga_tb/adexl/results/data/MonteCarlo.3/sharedData/Job173/ahdl/input.ahdlSimDB/input.ahdlSimDB/bsource_fcab9d.va.bsource_fcab9d.ahdlcmi/Linux-64/ to /home/davidevi/Desktop/myproject/Sim/VGA/VGA_1_pss_tb/maestro/results/maestro/MonteCarlo.5/sharedData/lscsJob444/ahdl/input.ahdlSimDB/input.ahdlSimDB//bsource_fcab9d.va.bsource_fcab9d.ahdlcmi/Linux-64/.
The simulator has reused the existing Verilog-A libraries for this simulation run. If you do not want to use these libraries, set the 'CDS_AHDL_REUSE_LIB' environment variable to 'NO' and rerun the simulation.
Existing shared object for module bsource_fcab9d is up to date.
Installed compiled interface for bsource_fcab9d.

Warning from spectre during hierarchy flattening.
    WARNING (SFE-3016): The floating node net6 is removed.

Time for Elaboration: CPU = 136.63 ms, elapsed = 181.681 ms.
Time accumulated: CPU = 552.098 ms, elapsed = 506.232 ms.
Peak resident memory used = 196 Mbytes.


Notice from spectre during hierarchy flattening.
    The value 'psf' specified for the 'checklimitdest' option will no longer be supported in future releases. Use 'spectre -h' to see other recommended values for the 'checklimitdest' option.


*****************************************************************************************
* 
* INFO: AMS_processOption = C35B4C3
* 
* INFO: Valid Modules  PIP VG5 HIRES
* 
*****************************************************************************************


Time for EDB Visiting: CPU = 8.321 ms, elapsed = 9.34196 ms.
Time accumulated: CPU = 560.55 ms, elapsed = 515.705 ms.
Peak resident memory used = 198 Mbytes.

Loading /opt/tools/cadence/installs/SPECTRE241/tools.lnx86/mdl/lib/64bit/libSpectreEH_sh.so ...

Warning from spectre during initial setup.
    WARNING (SPECTRE-17607): Assert `SOAC_rpolyh_vminuspsub' is ignored because it contains an expression which is invalid or not supported by native evaluator. 
    WARNING (SPECTRE-17607): Assert `SOAC_rpolyh_vpluspsub' is ignored because it contains an expression which is invalid or not supported by native evaluator. 
    WARNING (SPECTRE-16460): SOAC_cvarm_vspsub:Specified subcircuit master `cvarm' was not found.
    WARNING (SPECTRE-16462): SOAC_cvarm_vspsub:Error in specification of subcircuit master. Assert is ignored.
    WARNING (SPECTRE-16460): SOAC_cvarm_vbs:Specified subcircuit master `cvarm' was not found.
    WARNING (SPECTRE-16462): SOAC_cvarm_vbs:Error in specification of subcircuit master. Assert is ignored.
    WARNING (SPECTRE-16460): SOAC_cvarm_vgb:Specified subcircuit master `cvarm' was not found.
    WARNING (SPECTRE-16462): SOAC_cvarm_vgb:Error in specification of subcircuit master. Assert is ignored.
    WARNING (SPECTRE-16460): SOAC_cvart_vspsub:Specified subcircuit master `cvart' was not found.
    WARNING (SPECTRE-16462): SOAC_cvart_vspsub:Error in specification of subcircuit master. Assert is ignored.
    WARNING (SPECTRE-16460): SOAC_cvart_vbs:Specified subcircuit master `cvart' was not found.
        Further occurrences of this warning will be suppressed.
    WARNING (SPECTRE-16462): SOAC_cvart_vbs:Error in specification of subcircuit master. Assert is ignored.
        Further occurrences of this warning will be suppressed.
    WARNING (SPECTRE-17607): Assert `SOAC_cpoly_vminuspsub' is ignored because it contains an expression which is invalid or not supported by native evaluator. 
    WARNING (SPECTRE-17607): Assert `SOAC_cpoly_vpluspsub' is ignored because it contains an expression which is invalid or not supported by native evaluator. 
    WARNING (SPECTRE-17607): Assert `SOAC_modp_vbpsub' is ignored because it contains an expression which is invalid or not supported by native evaluator. 
        Further occurrences of this warning will be suppressed.
Notice from spectre during initial setup.
    Multithreading is disabled due to the size of the design being too small.


Netlist title:
        // Point Netlist Generated on: Apr 15 13:18:12 2026


Warning from spectre during initial setup.
    WARNING (SPECTRE-592): Following parameters are disabled because they are ignored or redefined in Spectre X:
        
        
        PSS Parameters:
          errpreset


Global user options:
         psfversion = 1.4.0
               temp = 27
           homotopy = 5
              limit = delta
         compatible = spice2
               gmin = 1e-12
             rforce = 1
           maxnotes = 5
           maxwarns = 5
             digits = 5
               cols = 80
             pivrel = 0.001
           sensfile = ../psf/sens.output
     checklimitdest = psf
     enable_pre_ver = yes
      ignorezerovar = yes
               save = allpub
               tnom = 27
             scalem = 1
              scale = 1

Scoped user options:

Circuit inventory:
              nodes 33
            bsim3v3 35    
     bsource_fcab9d 2     
          capacitor 38    
            isource 1     
           resistor 1     
            vsource 7     

Analysis and control statement inventory:
               info 7     
         montecarlo 1     
                pss 1     
               tran 1     

Output statements:
             .probe 0     
           .measure 0     
               save 0     

Design checks inventory:
          paramtest 55    
             assert 175   


Notice from spectre during initial setup.
    Spectre X preset=cx enabled.
    73 warnings suppressed.

Time for parsing: CPU = 21.859 ms, elapsed = 630.905 ms.
Time accumulated: CPU = 582.542 ms, elapsed = 1.14674 s.
Peak resident memory used = 206 Mbytes.

~~~~~~~~~~~~~~~~~~~~~~
Pre-Simulation Summary
~~~~~~~~~~~~~~~~~~~~~~
   -   (Spectre X) Multi-threading. The recommended number of threads is 1, consider adding +mt=1 on command line.
~~~~~~~~~~~~~~~~~~~~~~

**************************************************
Monte Carlo Analysis `mc1': iteration = (55 -> 63)
**************************************************
Important parameter values:
    seed = 12345
    sampling = lds
    variations = all
    firstrun = 55
    numruns = 9
    nullmfactorcorrelation = no
    donominal = no
    method = standard
Opening iteration number and data-directory mapping file:  /home/davidevi/Desktop/myproject/Sim/VGA/VGA_1_pss_tb/maestro/results/maestro/MonteCarlo.5/55/MC/groupRunDataDir/netlist/../psf/mc1.mapping

Statistical parameters:
    Defined process parameters: 629
    Defined mismatch parameters (subckt based): 86
    Non-referenced mismatch parameters: 80
    Number of random variables: 707
    Gaussian truncation for process parameters: 4.00 sigma
    Gaussian truncation for mismatch parameters: 4.00 sigma


**** Skipping runs 1 to 54 for `mc1'


Opening the PSF file ../psf/mc1_tran.montecarlo ...

Opening the PSF file ../psf/mc1_finalTimeOP.montecarlo ...

Opening the PSF file ../psf/mc1_pss_td.montecarlo ...

Opening the PSF file ../psf/mc1_pss_fd.montecarlo ...

Opening the PSF file ../psf/mc1_modelParameter.montecarlo ...

Opening the PSF file ../psf/mc1_element.montecarlo ...

Opening the PSF file ../psf/mc1_outputParameter.montecarlo ...

Opening the PSF file ../psf/mc1_designParamVals.montecarlo ...

Opening the PSF file ../psf/mc1_primitives.montecarlo ...

Opening the PSF file ../psf/mc1_subckts.montecarlo ...

**** Performing monte carlo loop for `mc1'

55   0.00% 

Notice from spectre at iteration = 55 during transient analysis `tran', during Monte Carlo analysis `mc1'.
    No checklimit analysis defined for asserts. A default checklimit analysis 'SpectreChecklimitAnal' has been created with all asserts enabled.


*************************************************
Transient Analysis `tran': time = (0 s -> 100 ms)
*************************************************

Opening the PSF file ../psf/mc1_separate/055/tran.tran.tran ...

Notice from spectre at iteration = 55 during IC analysis, during transient analysis `tran', during Monte Carlo analysis `mc1'.
    Bad pivoting is found during DC analysis. Option dc_pivot_check=yes is recommended for possible improvement of convergence.
Warning from spectre at iteration = 55 during check, during IC analysis, during transient analysis `tran', during Monte Carlo analysis `mc1'.
    WARNING (CMI-2943): Parameter checks have been ignored because the valid value for parameter 'trise' could not be found in 'C1'.
    WARNING (CMI-2943): Parameter checks have been ignored because the valid value for parameter 'trise' could not be found in 'I0.C8<0>_turbo_m4.C1'.
    WARNING (CMI-2943): Parameter checks have been ignored because the valid value for parameter 'trise' could not be found in 'I0.C9<0>_turbo_m8.C1'.
    WARNING (CMI-2943): Parameter checks have been ignored because the valid value for parameter 'trise' could not be found in 'I0.C7<0>_turbo_m2.C1'.
    WARNING (CMI-2943): Parameter checks have been ignored because the valid value for parameter 'trise' could not be found in 'I0.R2.CM'.
        Further occurrences of this warning will be suppressed.

Convergence achieved in 18 iterations.
DC simulation time: CPU = 3.108 ms, elapsed = 3.10898 ms.
Important parameter values:
    start = 0 s
    outputstart = 0 s
    stop = 100 ms
    step = 100 us
    maxstep = 1 ms
    ic = all
    useprevic = no
    skipdc = no
    reltol = 100e-06
    abstol(V) = 1 uV
    abstol(I) = 1 pA
    temp = 27 C
    tnom = 27 C
    tempeffects = all
    errpreset = conservative_sigglobal
    method = gear2only
    lteratio = 10
    relref = sigglobal
    cmin = 0 F
    gmin = 1 pS
    rabsshort = 1 mOhm


Notice from spectre at iteration = 55 during transient analysis `tran', during Monte Carlo analysis `mc1'.
    Multithreading is disabled due to the size of the design being too small.


Output and IC/nodeset summary:
                 save   7       (current)
                 save   32      (voltage)

    tran: time = 2.908 ms    (2.91 %), step = 934.7 us     (935 m%)
    tran: time = 7.846 ms    (7.85 %), step = 1 ms            (1 %)
    tran: time = 13.29 ms    (13.3 %), step = 871.1 us     (871 m%)
    tran: time = 18.21 ms    (18.2 %), step = 1 ms            (1 %)
    tran: time = 22.73 ms    (22.7 %), step = 854.7 us     (855 m%)
    tran: time = 27.56 ms    (27.6 %), step = 1 ms            (1 %)
    tran: time = 33.04 ms      (33 %), step = 862.7 us     (863 m%)
    tran: time = 37.92 ms    (37.9 %), step = 1 ms            (1 %)
    tran: time = 43.36 ms    (43.4 %), step = 873.4 us     (873 m%)
    tran: time = 48.28 ms    (48.3 %), step = 1 ms            (1 %)
    tran: time = 52.79 ms    (52.8 %), step = 856 us       (856 m%)
    tran: time = 57.62 ms    (57.6 %), step = 1 ms            (1 %)
    tran: time = 63.1 ms     (63.1 %), step = 864.5 us     (865 m%)
    tran: time = 67.99 ms      (68 %), step = 1 ms            (1 %)
    tran: time = 72.54 ms    (72.5 %), step = 851 us       (851 m%)
    tran: time = 78.34 ms    (78.3 %), step = 1 ms            (1 %)
    tran: time = 82.85 ms    (82.8 %), step = 857.4 us     (857 m%)
    tran: time = 87.69 ms    (87.7 %), step = 1 ms            (1 %)
    tran: time = 93.17 ms    (93.2 %), step = 866.5 us     (867 m%)
    tran: time = 98.06 ms    (98.1 %), step = 1 ms            (1 %)
Number of accepted tran steps =             112

Maximum value achieved for any signal of each quantity: 
V: V(net2) = 3.3 V
I: I(V0:p) = 6.534 uA

~~~~~~~~~~~~~~~~~~~~~~~~~~~~~~~~~
Post-Transient Simulation Summary
~~~~~~~~~~~~~~~~~~~~~~~~~~~~~~~~~
   -   Non-default settings that could significantly slow down simulation
          errpreset = conservative_sigglobal, default moderate
~~~~~~~~~~~~~~~~~~~~~~~~~~~~~~~~~


During simulation, the CPU load for active processors is :
         0 (100.0 %)     1 (14.5 %)      2 (43.6 %)      3 (86.1 %)
         4 (7.7 %)       5 (44.7 %)      6 (41.5 %)      7 (26.7 %)
         8 (65.8 %)      9 (6.9 %)      10 (12.7 %)     11 (100.0 %)
        12 (32.5 %)     13 (44.9 %)     14 (49.6 %)     15 (100.0 %)
        16 (59.3 %)     17 (20.9 %)     18 (23.7 %)     19 (34.8 %)
        20 (23.9 %)     21 (69.2 %)     22 (70.3 %)     23 (88.1 %)
        24 (3.4 %)      25 (100.0 %)    26 (3.5 %)      27 (17.2 %)
        28 (77.1 %)     29 (100.0 %)    30 (7.8 %)      31 (41.9 %)
        32 (44.4 %)     33 (20.7 %)     34 (7.7 %)      35 (72.8 %)
        36 (100.0 %)    37 (46.2 %)     38 (46.6 %)     39 (24.8 %)
        40 (94.1 %)     41 (31.3 %)     42 (22.6 %)     43 (50.9 %)
        44 (7.0 %)      45 (6.1 %)      46 (8.6 %)      47 (38.8 %)
        Total: 2140.9%
Initial condition solution time: CPU = 3.152 ms, elapsed = 3.15404 ms.
Intrinsic tran analysis time:    CPU = 24.006 ms, elapsed = 25.439 ms.
Total time required for tran analysis `tran': CPU = 110.982 ms, elapsed = 116.323 ms, util. = 95.4%.
Time accumulated: CPU = 749.591 ms, elapsed = 1.32634 s.
Peak resident memory used = 217 Mbytes.


Notice from spectre during transient analysis `tran', during Monte Carlo analysis `mc1'.
    12 warnings suppressed.

finalTimeOP: writing operating point information to rawfile.

Opening the PSF file ../psf/mc1_separate/055/finalTimeOP.info ...
Licensing Information:
[13:18:18.097176] Periodic Lic check successful


**************************************************
Periodic Steady-State Analysis `pss': fund = 50 Hz
**************************************************

Notice from spectre during IC analysis, during periodic steady state analysis `pss', during Monte Carlo analysis `mc1'.
    Bad pivoting is found during DC analysis. Option dc_pivot_check=yes is recommended for possible improvement of convergence.
Warning from spectre during check, during IC analysis, during periodic steady state analysis `pss', during Monte Carlo analysis `mc1'.
    WARNING (CMI-2943): Parameter checks have been ignored because the valid value for parameter 'trise' could not be found in 'C1'.
    WARNING (CMI-2943): Parameter checks have been ignored because the valid value for parameter 'trise' could not be found in 'I0.C8<0>_turbo_m4.C1'.
    WARNING (CMI-2943): Parameter checks have been ignored because the valid value for parameter 'trise' could not be found in 'I0.C9<0>_turbo_m8.C1'.
    WARNING (CMI-2943): Parameter checks have been ignored because the valid value for parameter 'trise' could not be found in 'I0.C7<0>_turbo_m2.C1'.
    WARNING (CMI-2943): Parameter checks have been ignored because the valid value for parameter 'trise' could not be found in 'I0.R2.CM'.
        Further occurrences of this warning will be suppressed.

Convergence achieved in 18 iterations.
DC simulation time: CPU = 2.86 ms, elapsed = 2.86102 ms.

==================================
pss `tstab': time = (0 s -> 20 ms)
==================================

Output and IC/nodeset summary:
                 save   7       (current)
                 save   32      (voltage)

Important parameter values in tstab integration:
    start = 0 s
    outputstart = 0 s
    stop = 20 ms
    period = 20 ms
    maxperiods = 20
    step = 20 us
    maxstep = 800 us
    ic = all
    useprevic = no
    skipdc = no
    reltol = 1e-03
    abstol(V) = 1 uV
    abstol(I) = 1 pA
    temp = 27 C
    tnom = 27 C
    tempeffects = all
    method = traponly
    lteratio = 3.5
    relref = sigglobal
    cmin = 0 F
    gmin = 1 pS
    rabsshort = 1 mOhm

    pss: time = 523.6 us    (2.62 %), step = 264.9 us     (1.32 %)
    pss: time = 2.203 ms      (11 %), step = 800 us          (4 %)
    pss: time = 3.003 ms      (15 %), step = 800 us          (4 %)
    pss: time = 3.803 ms      (19 %), step = 800 us          (4 %)
    pss: time = 4.603 ms      (23 %), step = 800 us          (4 %)
    pss: time = 6.203 ms      (31 %), step = 800 us          (4 %)
    pss: time = 7.003 ms      (35 %), step = 800 us          (4 %)
    pss: time = 7.803 ms      (39 %), step = 800 us          (4 %)
    pss: time = 8.603 ms      (43 %), step = 800 us          (4 %)
    pss: time = 10.2 ms       (51 %), step = 800 us          (4 %)
    pss: time = 11 ms         (55 %), step = 800 us          (4 %)
    pss: time = 11.8 ms       (59 %), step = 800 us          (4 %)
    pss: time = 12.6 ms       (63 %), step = 800 us          (4 %)
    pss: time = 14.2 ms       (71 %), step = 800 us          (4 %)
    pss: time = 15 ms         (75 %), step = 800 us          (4 %)
    pss: time = 15.8 ms       (79 %), step = 800 us          (4 %)
    pss: time = 16.6 ms       (83 %), step = 800 us          (4 %)
    pss: time = 18.2 ms       (91 %), step = 800 us          (4 %)
    pss: time = 19 ms         (95 %), step = 800 us          (4 %)
    pss: time = 19.5 ms     (97.5 %), step = 498.6 us     (2.49 %)
Total time required for tstab analysis `pss': CPU = 6.824 ms, elapsed = 6.83403 ms.
Time accumulated: CPU = 774.727 ms, elapsed = 1.36858 s.
Peak resident memory used = 219 Mbytes.

Conv norm = 29.8, max dV(vout_filt) = -10.2697 mV, took 10 ms.

Important parameter values in pss iteration:
    start = 0 s
    outputstart = 0 s
    stop = 20 ms
    period = 20 ms
    maxperiods = 20
    steadyratio = 10e-03
    step = 20 us
    maxstep = 100 us
    ic = all
    useprevic = no
    skipdc = no
    reltol = 100e-06
    abstol(V) = 1 uV
    abstol(I) = 1 pA
    temp = 27 C
    tnom = 27 C
    tempeffects = all
    errpreset = conservative
    method = gear2only
    lteratio = 10
    relref = sigglobal
    cmin = 0 F
    gmin = 1 pS
    rabsshort = 1 mOhm


Notice from spectre during periodic steady state analysis `pss', during Monte Carlo analysis `mc1'.
    12 warnings suppressed.


============================
`pss': time = (0 s -> 20 ms)
============================
    pss: time = 512.5 us    (2.56 %), step = 12.5 us     (62.5 m%)
    pss: time = 1.512 ms    (7.56 %), step = 12.5 us     (62.5 m%)
    pss: time = 2.512 ms    (12.6 %), step = 12.5 us     (62.5 m%)
    pss: time = 3.512 ms    (17.6 %), step = 12.5 us     (62.5 m%)
    pss: time = 4.5 ms      (22.5 %), step = 12.5 us     (62.5 m%)
    pss: time = 5.5 ms      (27.5 %), step = 12.5 us     (62.5 m%)
    pss: time = 6.5 ms      (32.5 %), step = 12.5 us     (62.5 m%)
    pss: time = 7.5 ms      (37.5 %), step = 12.5 us     (62.5 m%)
    pss: time = 8.5 ms      (42.5 %), step = 12.5 us     (62.5 m%)
    pss: time = 9.5 ms      (47.5 %), step = 12.5 us     (62.5 m%)
    pss: time = 10.5 ms     (52.5 %), step = 12.5 us     (62.5 m%)
    pss: time = 11.5 ms     (57.5 %), step = 12.5 us     (62.5 m%)
    pss: time = 12.5 ms     (62.5 %), step = 12.5 us     (62.5 m%)
    pss: time = 13.5 ms     (67.5 %), step = 12.5 us     (62.5 m%)
    pss: time = 14.5 ms     (72.5 %), step = 12.5 us     (62.5 m%)
    pss: time = 15.5 ms     (77.5 %), step = 12.5 us     (62.5 m%)
    pss: time = 16.5 ms     (82.5 %), step = 12.5 us     (62.5 m%)
    pss: time = 17.5 ms     (87.5 %), step = 12.5 us     (62.5 m%)
    pss: time = 18.5 ms     (92.5 %), step = 12.5 us     (62.5 m%)
    pss: time = 19.51 ms    (97.6 %), step = 12.5 us     (62.5 m%)
Conv norm = 173e-03, max dV(vout) = -17.165 uV, took 420 ms.


Opening the PSF file ../psf/mc1_separate/055/pss.td.pss ...

Opening the PSF file ../psf/mc1_separate/055/pss.fd.pss ...

============================
`pss': time = (0 s -> 20 ms)
============================
    pss: time = 512.5 us    (2.56 %), step = 12.5 us     (62.5 m%)
    pss: time = 1.512 ms    (7.56 %), step = 12.5 us     (62.5 m%)
    pss: time = 2.512 ms    (12.6 %), step = 12.5 us     (62.5 m%)
    pss: time = 3.512 ms    (17.6 %), step = 12.5 us     (62.5 m%)
    pss: time = 4.5 ms      (22.5 %), step = 12.5 us     (62.5 m%)
    pss: time = 5.5 ms      (27.5 %), step = 12.5 us     (62.5 m%)
    pss: time = 6.5 ms      (32.5 %), step = 12.5 us     (62.5 m%)
    pss: time = 7.5 ms      (37.5 %), step = 12.5 us     (62.5 m%)
    pss: time = 8.5 ms      (42.5 %), step = 12.5 us     (62.5 m%)
    pss: time = 9.5 ms      (47.5 %), step = 12.5 us     (62.5 m%)
    pss: time = 10.5 ms     (52.5 %), step = 12.5 us     (62.5 m%)
    pss: time = 11.5 ms     (57.5 %), step = 12.5 us     (62.5 m%)
    pss: time = 12.5 ms     (62.5 %), step = 12.5 us     (62.5 m%)
    pss: time = 13.5 ms     (67.5 %), step = 12.5 us     (62.5 m%)
    pss: time = 14.5 ms     (72.5 %), step = 12.5 us     (62.5 m%)
    pss: time = 15.5 ms     (77.5 %), step = 12.5 us     (62.5 m%)
    pss: time = 16.5 ms     (82.5 %), step = 12.5 us     (62.5 m%)
    pss: time = 17.5 ms     (87.5 %), step = 12.5 us     (62.5 m%)
    pss: time = 18.5 ms     (92.5 %), step = 12.5 us     (62.5 m%)
    pss: time = 19.51 ms    (97.6 %), step = 12.5 us     (62.5 m%)

Maximum value achieved for any signal of each quantity: 
V: V(net2) = 3.3 V
I: I(V0:p) = 6.534 uA
Initial condition solution time: CPU = 2.909 ms, elapsed = 2.91109 ms.
pss: The steady-state solution was achieved in 2 iterations.
Number of accepted pss steps =             1600
Total time required for pss analysis `pss': CPU = 861.735 ms, elapsed = 879.954 ms, util. = 97.9%.
Time accumulated: CPU = 1.6175 s, elapsed = 2.21528 s.
Peak resident memory used = 224 Mbytes.

modelParameter: writing model parameter values to rawfile.

Opening the PSF file ../psf/mc1_separate/055/modelParameter.info ...
element: writing instance parameter values to rawfile.

Opening the PSF file ../psf/mc1_separate/055/element.info ...
outputParameter: writing output parameter values to rawfile.

Opening the PSF file ../psf/mc1_separate/055/outputParameter.info ...
designParamVals: writing netlist parameters to rawfile.

Opening the PSFASCII file ../psf/mc1_separate/055/designParamVals.info ...
primitives: writing primitives to rawfile.

Opening the PSFASCII file ../psf/mc1_separate/055/primitives.info.primitives ...
subckts: writing subcircuits to rawfile.

Opening the PSFASCII file ../psf/mc1_separate/055/subckts.info.subckts ...
56  12.50% 

*************************************************
Transient Analysis `tran': time = (0 s -> 100 ms)
*************************************************

Opening the PSF file ../psf/mc1_separate/056/tran.tran.tran ...

Notice from spectre during IC analysis, during transient analysis `tran', during Monte Carlo analysis `mc1'.
    Bad pivoting is found during DC analysis. Option dc_pivot_check=yes is recommended for possible improvement of convergence.
Warning from spectre during check, during IC analysis, during transient analysis `tran', during Monte Carlo analysis `mc1'.
    WARNING (CMI-2943): Parameter checks have been ignored because the valid value for parameter 'trise' could not be found in 'C1'.
    WARNING (CMI-2943): Parameter checks have been ignored because the valid value for parameter 'trise' could not be found in 'I0.C8<0>_turbo_m4.C1'.
    WARNING (CMI-2943): Parameter checks have been ignored because the valid value for parameter 'trise' could not be found in 'I0.C9<0>_turbo_m8.C1'.
    WARNING (CMI-2943): Parameter checks have been ignored because the valid value for parameter 'trise' could not be found in 'I0.C7<0>_turbo_m2.C1'.
    WARNING (CMI-2943): Parameter checks have been ignored because the valid value for parameter 'trise' could not be found in 'I0.R2.CM'.
        Further occurrences of this warning will be suppressed.

Convergence achieved in 18 iterations.
DC simulation time: CPU = 2.319 ms, elapsed = 2.3191 ms.
Important parameter values:
    start = 0 s
    outputstart = 0 s
    stop = 100 ms
    step = 100 us
    maxstep = 1 ms
    ic = all
    useprevic = no
    skipdc = no
    reltol = 100e-06
    abstol(V) = 1 uV
    abstol(I) = 1 pA
    temp = 27 C
    tnom = 27 C
    tempeffects = all
    errpreset = conservative_sigglobal
    method = gear2only
    lteratio = 10
    relref = sigglobal
    cmin = 0 F
    gmin = 1 pS
    rabsshort = 1 mOhm


Notice from spectre during transient analysis `tran', during Monte Carlo analysis `mc1'.
    Multithreading is disabled due to the size of the design being too small.


Output and IC/nodeset summary:
                 save   7       (current)
                 save   32      (voltage)

    tran: time = 2.905 ms     (2.9 %), step = 932.9 us     (933 m%)
    tran: time = 7.842 ms    (7.84 %), step = 1 ms            (1 %)
    tran: time = 13.29 ms    (13.3 %), step = 870.9 us     (871 m%)
    tran: time = 18.21 ms    (18.2 %), step = 1 ms            (1 %)
    tran: time = 22.73 ms    (22.7 %), step = 854.5 us     (855 m%)
    tran: time = 27.55 ms    (27.6 %), step = 1 ms            (1 %)
    tran: time = 33.04 ms      (33 %), step = 862.5 us     (863 m%)
    tran: time = 37.91 ms    (37.9 %), step = 1 ms            (1 %)
    tran: time = 43.35 ms    (43.4 %), step = 873.2 us     (873 m%)
    tran: time = 48.27 ms    (48.3 %), step = 1 ms            (1 %)
    tran: time = 52.79 ms    (52.8 %), step = 855.8 us     (856 m%)
    tran: time = 57.62 ms    (57.6 %), step = 1 ms            (1 %)
    tran: time = 63.1 ms     (63.1 %), step = 864.3 us     (864 m%)
    tran: time = 67.98 ms      (68 %), step = 1 ms            (1 %)
    tran: time = 72.54 ms    (72.5 %), step = 850.9 us     (851 m%)
    tran: time = 78.34 ms    (78.3 %), step = 1 ms            (1 %)
    tran: time = 82.84 ms    (82.8 %), step = 857.2 us     (857 m%)
    tran: time = 87.69 ms    (87.7 %), step = 1 ms            (1 %)
    tran: time = 93.16 ms    (93.2 %), step = 866.3 us     (866 m%)
    tran: time = 98.05 ms    (98.1 %), step = 1 ms            (1 %)
Number of accepted tran steps =             112

Maximum value achieved for any signal of each quantity: 
V: V(net2) = 3.3 V
I: I(V0:p) = 6.233 uA

~~~~~~~~~~~~~~~~~~~~~~~~~~~~~~~~~
Post-Transient Simulation Summary
~~~~~~~~~~~~~~~~~~~~~~~~~~~~~~~~~
   -   Non-default settings that could significantly slow down simulation
          errpreset = conservative_sigglobal, default moderate
~~~~~~~~~~~~~~~~~~~~~~~~~~~~~~~~~


During simulation, the CPU load for active processors is :
         0 (100.0 %)     1 (21.8 %)      2 (65.6 %)      3 (61.5 %)
         4 (28.1 %)      5 (31.5 %)      6 (35.2 %)      7 (27.6 %)
         8 (81.1 %)      9 (22.5 %)     10 (22.1 %)     11 (81.8 %)
        12 (57.1 %)     13 (33.0 %)     14 (33.8 %)     15 (89.3 %)
        16 (67.4 %)     17 (21.6 %)     18 (45.2 %)     19 (28.5 %)
        20 (33.0 %)     21 (60.7 %)     22 (49.3 %)     23 (92.3 %)
        24 (42.9 %)     25 (100.0 %)    26 (34.8 %)     27 (32.1 %)
        28 (69.1 %)     29 (100.0 %)    30 (13.1 %)     31 (68.3 %)
        32 (25.0 %)     33 (12.2 %)     34 (7.7 %)      35 (63.5 %)
        36 (100.0 %)    37 (50.7 %)     38 (56.3 %)     39 (18.5 %)
        40 (95.6 %)     41 (36.8 %)     42 (17.1 %)     43 (45.9 %)
        44 (35.7 %)     45 (44.6 %)     46 (10.4 %)     47 (26.1 %)
        Total: 2296.5%
Initial condition solution time: CPU = 2.359 ms, elapsed = 2.35987 ms.
Intrinsic tran analysis time:    CPU = 21.936 ms, elapsed = 23.283 ms.
Total time required for tran analysis `tran': CPU = 26.497 ms, elapsed = 28.4109 ms, util. = 93.3%.
Time accumulated: CPU = 1.67955 s, elapsed = 2.28963 s.
Peak resident memory used = 224 Mbytes.


Notice from spectre during transient analysis `tran', during Monte Carlo analysis `mc1'.
    12 warnings suppressed.

finalTimeOP: writing operating point information to rawfile.

Opening the PSF file ../psf/mc1_separate/056/finalTimeOP.info ...
Licensing Information:
[13:18:19.059961] Periodic Lic check successful


**************************************************
Periodic Steady-State Analysis `pss': fund = 50 Hz
**************************************************

Notice from spectre during IC analysis, during periodic steady state analysis `pss', during Monte Carlo analysis `mc1'.
    Bad pivoting is found during DC analysis. Option dc_pivot_check=yes is recommended for possible improvement of convergence.
Warning from spectre during check, during IC analysis, during periodic steady state analysis `pss', during Monte Carlo analysis `mc1'.
    WARNING (CMI-2943): Parameter checks have been ignored because the valid value for parameter 'trise' could not be found in 'C1'.
    WARNING (CMI-2943): Parameter checks have been ignored because the valid value for parameter 'trise' could not be found in 'I0.C8<0>_turbo_m4.C1'.
    WARNING (CMI-2943): Parameter checks have been ignored because the valid value for parameter 'trise' could not be found in 'I0.C9<0>_turbo_m8.C1'.
    WARNING (CMI-2943): Parameter checks have been ignored because the valid value for parameter 'trise' could not be found in 'I0.C7<0>_turbo_m2.C1'.
    WARNING (CMI-2943): Parameter checks have been ignored because the valid value for parameter 'trise' could not be found in 'I0.R2.CM'.
        Further occurrences of this warning will be suppressed.

Convergence achieved in 18 iterations.
DC simulation time: CPU = 2.471 ms, elapsed = 2.47192 ms.

==================================
pss `tstab': time = (0 s -> 20 ms)
==================================

Output and IC/nodeset summary:
                 save   7       (current)
                 save   32      (voltage)

Important parameter values in tstab integration:
    start = 0 s
    outputstart = 0 s
    stop = 20 ms
    period = 20 ms
    maxperiods = 20
    step = 20 us
    maxstep = 800 us
    ic = all
    useprevic = no
    skipdc = no
    reltol = 1e-03
    abstol(V) = 1 uV
    abstol(I) = 1 pA
    temp = 27 C
    tnom = 27 C
    tempeffects = all
    method = traponly
    lteratio = 3.5
    relref = sigglobal
    cmin = 0 F
    gmin = 1 pS
    rabsshort = 1 mOhm

    pss: time = 503.4 us    (2.52 %), step = 253.4 us     (1.27 %)
    pss: time = 2.166 ms    (10.8 %), step = 800 us          (4 %)
    pss: time = 2.966 ms    (14.8 %), step = 800 us          (4 %)
    pss: time = 3.766 ms    (18.8 %), step = 800 us          (4 %)
    pss: time = 4.566 ms    (22.8 %), step = 800 us          (4 %)
    pss: time = 6.166 ms    (30.8 %), step = 800 us          (4 %)
    pss: time = 6.966 ms    (34.8 %), step = 800 us          (4 %)
    pss: time = 7.766 ms    (38.8 %), step = 800 us          (4 %)
    pss: time = 8.566 ms    (42.8 %), step = 800 us          (4 %)
    pss: time = 10.17 ms    (50.8 %), step = 800 us          (4 %)
    pss: time = 10.97 ms    (54.8 %), step = 800 us          (4 %)
    pss: time = 11.77 ms    (58.8 %), step = 800 us          (4 %)
    pss: time = 12.57 ms    (62.8 %), step = 800 us          (4 %)
    pss: time = 14.17 ms    (70.8 %), step = 800 us          (4 %)
    pss: time = 14.97 ms    (74.8 %), step = 800 us          (4 %)
    pss: time = 15.77 ms    (78.8 %), step = 800 us          (4 %)
    pss: time = 16.57 ms    (82.8 %), step = 800 us          (4 %)
    pss: time = 18.17 ms    (90.8 %), step = 800 us          (4 %)
    pss: time = 18.97 ms    (94.8 %), step = 800 us          (4 %)
    pss: time = 20 ms        (100 %), step = 517.2 us     (2.59 %)
Total time required for tstab analysis `pss': CPU = 5.992 ms, elapsed = 5.99194 ms.
Time accumulated: CPU = 1.70387 s, elapsed = 2.32778 s.
Peak resident memory used = 224 Mbytes.

Conv norm = 29.4, max dV(vout_filt) = -10.1046 mV, took 10 ms.

Important parameter values in pss iteration:
    start = 0 s
    outputstart = 0 s
    stop = 20 ms
    period = 20 ms
    maxperiods = 20
    steadyratio = 10e-03
    step = 20 us
    maxstep = 100 us
    ic = all
    useprevic = no
    skipdc = no
    reltol = 100e-06
    abstol(V) = 1 uV
    abstol(I) = 1 pA
    temp = 27 C
    tnom = 27 C
    tempeffects = all
    errpreset = conservative
    method = gear2only
    lteratio = 10
    relref = sigglobal
    cmin = 0 F
    gmin = 1 pS
    rabsshort = 1 mOhm


Notice from spectre during periodic steady state analysis `pss', during Monte Carlo analysis `mc1'.
    12 warnings suppressed.


============================
`pss': time = (0 s -> 20 ms)
============================
    pss: time = 512.5 us    (2.56 %), step = 12.5 us     (62.5 m%)
    pss: time = 1.512 ms    (7.56 %), step = 12.5 us     (62.5 m%)
    pss: time = 2.512 ms    (12.6 %), step = 12.5 us     (62.5 m%)
    pss: time = 3.512 ms    (17.6 %), step = 12.5 us     (62.5 m%)
    pss: time = 4.5 ms      (22.5 %), step = 12.5 us     (62.5 m%)
    pss: time = 5.5 ms      (27.5 %), step = 12.5 us     (62.5 m%)
    pss: time = 6.5 ms      (32.5 %), step = 12.5 us     (62.5 m%)
    pss: time = 7.5 ms      (37.5 %), step = 12.5 us     (62.5 m%)
    pss: time = 8.5 ms      (42.5 %), step = 12.5 us     (62.5 m%)
    pss: time = 9.5 ms      (47.5 %), step = 12.5 us     (62.5 m%)
    pss: time = 10.5 ms     (52.5 %), step = 12.5 us     (62.5 m%)
    pss: time = 11.5 ms     (57.5 %), step = 12.5 us     (62.5 m%)
    pss: time = 12.5 ms     (62.5 %), step = 12.5 us     (62.5 m%)
    pss: time = 13.5 ms     (67.5 %), step = 12.5 us     (62.5 m%)
    pss: time = 14.5 ms     (72.5 %), step = 12.5 us     (62.5 m%)
    pss: time = 15.5 ms     (77.5 %), step = 12.5 us     (62.5 m%)
    pss: time = 16.5 ms     (82.5 %), step = 12.5 us     (62.5 m%)
    pss: time = 17.5 ms     (87.5 %), step = 12.5 us     (62.5 m%)
    pss: time = 18.5 ms     (92.5 %), step = 12.5 us     (62.5 m%)
    pss: time = 19.51 ms    (97.6 %), step = 12.5 us     (62.5 m%)
Conv norm = 150e-03, max dV(vout) = -14.8887 uV, took 370 ms.


Opening the PSF file ../psf/mc1_separate/056/pss.td.pss ...

Opening the PSF file ../psf/mc1_separate/056/pss.fd.pss ...

============================
`pss': time = (0 s -> 20 ms)
============================
    pss: time = 512.5 us    (2.56 %), step = 12.5 us     (62.5 m%)
    pss: time = 1.512 ms    (7.56 %), step = 12.5 us     (62.5 m%)
    pss: time = 2.512 ms    (12.6 %), step = 12.5 us     (62.5 m%)
    pss: time = 3.512 ms    (17.6 %), step = 12.5 us     (62.5 m%)
    pss: time = 4.5 ms      (22.5 %), step = 12.5 us     (62.5 m%)
    pss: time = 5.5 ms      (27.5 %), step = 12.5 us     (62.5 m%)
    pss: time = 6.5 ms      (32.5 %), step = 12.5 us     (62.5 m%)
    pss: time = 7.5 ms      (37.5 %), step = 12.5 us     (62.5 m%)
    pss: time = 8.5 ms      (42.5 %), step = 12.5 us     (62.5 m%)
    pss: time = 9.5 ms      (47.5 %), step = 12.5 us     (62.5 m%)
    pss: time = 10.5 ms     (52.5 %), step = 12.5 us     (62.5 m%)
    pss: time = 11.5 ms     (57.5 %), step = 12.5 us     (62.5 m%)
    pss: time = 12.5 ms     (62.5 %), step = 12.5 us     (62.5 m%)
    pss: time = 13.5 ms     (67.5 %), step = 12.5 us     (62.5 m%)
    pss: time = 14.5 ms     (72.5 %), step = 12.5 us     (62.5 m%)
    pss: time = 15.5 ms     (77.5 %), step = 12.5 us     (62.5 m%)
    pss: time = 16.5 ms     (82.5 %), step = 12.5 us     (62.5 m%)
    pss: time = 17.5 ms     (87.5 %), step = 12.5 us     (62.5 m%)
    pss: time = 18.5 ms     (92.5 %), step = 12.5 us     (62.5 m%)
    pss: time = 19.51 ms    (97.6 %), step = 12.5 us     (62.5 m%)

Maximum value achieved for any signal of each quantity: 
V: V(net2) = 3.3 V
I: I(V0:p) = 6.233 uA
Initial condition solution time: CPU = 2.516 ms, elapsed = 2.51913 ms.
pss: The steady-state solution was achieved in 2 iterations.
Number of accepted pss steps =             1600
Total time required for pss analysis `pss': CPU = 813.931 ms, elapsed = 829.094 ms, util. = 98.2%.
Time accumulated: CPU = 2.49857 s, elapsed = 3.12618 s.
Peak resident memory used = 226 Mbytes.

modelParameter: writing model parameter values to rawfile.

Opening the PSF file ../psf/mc1_separate/056/modelParameter.info ...
element: writing instance parameter values to rawfile.

Opening the PSF file ../psf/mc1_separate/056/element.info ...
outputParameter: writing output parameter values to rawfile.

Opening the PSF file ../psf/mc1_separate/056/outputParameter.info ...
designParamVals: writing netlist parameters to rawfile.

Opening the PSFASCII file ../psf/mc1_separate/056/designParamVals.info ...
primitives: writing primitives to rawfile.

Opening the PSFASCII file ../psf/mc1_separate/056/primitives.info.primitives ...
subckts: writing subcircuits to rawfile.

Opening the PSFASCII file ../psf/mc1_separate/056/subckts.info.subckts ...
    mc1: iteration = 56          (12.5 %), step = 1            (12.5 %)
57  25.00% 

*************************************************
Transient Analysis `tran': time = (0 s -> 100 ms)
*************************************************

Opening the PSF file ../psf/mc1_separate/057/tran.tran.tran ...

Notice from spectre during IC analysis, during transient analysis `tran', during Monte Carlo analysis `mc1'.
    Bad pivoting is found during DC analysis. Option dc_pivot_check=yes is recommended for possible improvement of convergence.
Warning from spectre during check, during IC analysis, during transient analysis `tran', during Monte Carlo analysis `mc1'.
    WARNING (CMI-2943): Parameter checks have been ignored because the valid value for parameter 'trise' could not be found in 'C1'.
    WARNING (CMI-2943): Parameter checks have been ignored because the valid value for parameter 'trise' could not be found in 'I0.C8<0>_turbo_m4.C1'.
    WARNING (CMI-2943): Parameter checks have been ignored because the valid value for parameter 'trise' could not be found in 'I0.C9<0>_turbo_m8.C1'.
    WARNING (CMI-2943): Parameter checks have been ignored because the valid value for parameter 'trise' could not be found in 'I0.C7<0>_turbo_m2.C1'.
    WARNING (CMI-2943): Parameter checks have been ignored because the valid value for parameter 'trise' could not be found in 'I0.R2.CM'.
        Further occurrences of this warning will be suppressed.

Convergence achieved in 18 iterations.
DC simulation time: CPU = 2.417 ms, elapsed = 2.41804 ms.
Important parameter values:
    start = 0 s
    outputstart = 0 s
    stop = 100 ms
    step = 100 us
    maxstep = 1 ms
    ic = all
    useprevic = no
    skipdc = no
    reltol = 100e-06
    abstol(V) = 1 uV
    abstol(I) = 1 pA
    temp = 27 C
    tnom = 27 C
    tempeffects = all
    errpreset = conservative_sigglobal
    method = gear2only
    lteratio = 10
    relref = sigglobal
    cmin = 0 F
    gmin = 1 pS
    rabsshort = 1 mOhm


Notice from spectre during transient analysis `tran', during Monte Carlo analysis `mc1'.
    Multithreading is disabled due to the size of the design being too small.


Output and IC/nodeset summary:
                 save   7       (current)
                 save   32      (voltage)

    tran: time = 2.908 ms    (2.91 %), step = 934.6 us     (935 m%)
    tran: time = 7.846 ms    (7.85 %), step = 1 ms            (1 %)
    tran: time = 13.29 ms    (13.3 %), step = 871.1 us     (871 m%)
    tran: time = 18.21 ms    (18.2 %), step = 1 ms            (1 %)
    tran: time = 22.73 ms    (22.7 %), step = 854.7 us     (855 m%)
    tran: time = 27.56 ms    (27.6 %), step = 1 ms            (1 %)
    tran: time = 33.04 ms      (33 %), step = 862.7 us     (863 m%)
    tran: time = 37.92 ms    (37.9 %), step = 1 ms            (1 %)
    tran: time = 43.36 ms    (43.4 %), step = 873.4 us     (873 m%)
    tran: time = 48.28 ms    (48.3 %), step = 1 ms            (1 %)
    tran: time = 52.79 ms    (52.8 %), step = 856 us       (856 m%)
    tran: time = 57.62 ms    (57.6 %), step = 1 ms            (1 %)
    tran: time = 63.1 ms     (63.1 %), step = 864.5 us     (865 m%)
    tran: time = 67.99 ms      (68 %), step = 1 ms            (1 %)
    tran: time = 72.54 ms    (72.5 %), step = 851 us       (851 m%)
    tran: time = 78.34 ms    (78.3 %), step = 1 ms            (1 %)
    tran: time = 82.85 ms    (82.8 %), step = 857.4 us     (857 m%)
    tran: time = 87.69 ms    (87.7 %), step = 1 ms            (1 %)
    tran: time = 93.17 ms    (93.2 %), step = 866.5 us     (867 m%)
    tran: time = 98.06 ms    (98.1 %), step = 1 ms            (1 %)
Number of accepted tran steps =             112

Maximum value achieved for any signal of each quantity: 
V: V(net2) = 3.3 V
I: I(V0:p) = 6.508 uA

~~~~~~~~~~~~~~~~~~~~~~~~~~~~~~~~~
Post-Transient Simulation Summary
~~~~~~~~~~~~~~~~~~~~~~~~~~~~~~~~~
   -   Non-default settings that could significantly slow down simulation
          errpreset = conservative_sigglobal, default moderate
~~~~~~~~~~~~~~~~~~~~~~~~~~~~~~~~~


During simulation, the CPU load for active processors is :
         0 (100.0 %)     1 (18.2 %)      2 (74.3 %)      3 (56.3 %)
         4 (25.5 %)      5 (32.1 %)      6 (54.2 %)      7 (23.2 %)
         8 (75.7 %)      9 (18.4 %)     10 (40.8 %)     11 (68.5 %)
        12 (49.5 %)     13 (40.2 %)     14 (42.1 %)     15 (69.8 %)
        16 (76.8 %)     17 (19.9 %)     18 (55.6 %)     19 (28.3 %)
        20 (29.7 %)     21 (50.2 %)     22 (55.5 %)     23 (84.4 %)
        24 (32.7 %)     25 (100.0 %)    26 (25.9 %)     27 (26.6 %)
        28 (69.2 %)     29 (100.0 %)    30 (35.9 %)     31 (64.0 %)
        32 (34.4 %)     33 (12.3 %)     34 (20.2 %)     35 (69.0 %)
        36 (100.0 %)    37 (40.5 %)     38 (55.0 %)     39 (18.7 %)
        40 (95.6 %)     41 (29.4 %)     42 (23.0 %)     43 (50.6 %)
        44 (49.7 %)     45 (42.0 %)     46 (23.5 %)     47 (31.2 %)
        Total: 2338.4%
Initial condition solution time: CPU = 2.454 ms, elapsed = 2.45595 ms.
Intrinsic tran analysis time:    CPU = 21.648 ms, elapsed = 23.176 ms.
Total time required for tran analysis `tran': CPU = 26.167 ms, elapsed = 28.29 ms, util. = 92.5%.
Time accumulated: CPU = 2.55767 s, elapsed = 3.19728 s.
Peak resident memory used = 226 Mbytes.


Notice from spectre during transient analysis `tran', during Monte Carlo analysis `mc1'.
    12 warnings suppressed.

finalTimeOP: writing operating point information to rawfile.

Opening the PSF file ../psf/mc1_separate/057/finalTimeOP.info ...
Licensing Information:
[13:18:19.443595] Periodic Lic check successful


**************************************************
Periodic Steady-State Analysis `pss': fund = 50 Hz
**************************************************

Notice from spectre during IC analysis, during periodic steady state analysis `pss', during Monte Carlo analysis `mc1'.
    Bad pivoting is found during DC analysis. Option dc_pivot_check=yes is recommended for possible improvement of convergence.
Warning from spectre during check, during IC analysis, during periodic steady state analysis `pss', during Monte Carlo analysis `mc1'.
    WARNING (CMI-2943): Parameter checks have been ignored because the valid value for parameter 'trise' could not be found in 'C1'.
    WARNING (CMI-2943): Parameter checks have been ignored because the valid value for parameter 'trise' could not be found in 'I0.C8<0>_turbo_m4.C1'.
    WARNING (CMI-2943): Parameter checks have been ignored because the valid value for parameter 'trise' could not be found in 'I0.C9<0>_turbo_m8.C1'.
    WARNING (CMI-2943): Parameter checks have been ignored because the valid value for parameter 'trise' could not be found in 'I0.C7<0>_turbo_m2.C1'.
    WARNING (CMI-2943): Parameter checks have been ignored because the valid value for parameter 'trise' could not be found in 'I0.R2.CM'.
        Further occurrences of this warning will be suppressed.

Convergence achieved in 18 iterations.
DC simulation time: CPU = 2.534 ms, elapsed = 2.53391 ms.

==================================
pss `tstab': time = (0 s -> 20 ms)
==================================

Output and IC/nodeset summary:
                 save   7       (current)
                 save   32      (voltage)

Important parameter values in tstab integration:
    start = 0 s
    outputstart = 0 s
    stop = 20 ms
    period = 20 ms
    maxperiods = 20
    step = 20 us
    maxstep = 800 us
    ic = all
    useprevic = no
    skipdc = no
    reltol = 1e-03
    abstol(V) = 1 uV
    abstol(I) = 1 pA
    temp = 27 C
    tnom = 27 C
    tempeffects = all
    method = traponly
    lteratio = 3.5
    relref = sigglobal
    cmin = 0 F
    gmin = 1 pS
    rabsshort = 1 mOhm

    pss: time = 521.9 us    (2.61 %), step = 263.9 us     (1.32 %)
    pss: time = 2.2 ms        (11 %), step = 800 us          (4 %)
    pss: time = 3 ms          (15 %), step = 800 us          (4 %)
    pss: time = 3.8 ms        (19 %), step = 800 us          (4 %)
    pss: time = 4.6 ms        (23 %), step = 800 us          (4 %)
    pss: time = 6.2 ms        (31 %), step = 800 us          (4 %)
    pss: time = 7 ms          (35 %), step = 800 us          (4 %)
    pss: time = 7.8 ms        (39 %), step = 800 us          (4 %)
    pss: time = 8.6 ms        (43 %), step = 800 us          (4 %)
    pss: time = 10.2 ms       (51 %), step = 800 us          (4 %)
    pss: time = 11 ms         (55 %), step = 800 us          (4 %)
    pss: time = 11.8 ms       (59 %), step = 800 us          (4 %)
    pss: time = 12.6 ms       (63 %), step = 800 us          (4 %)
    pss: time = 14.2 ms       (71 %), step = 800 us          (4 %)
    pss: time = 15 ms         (75 %), step = 800 us          (4 %)
    pss: time = 15.8 ms       (79 %), step = 800 us          (4 %)
    pss: time = 16.6 ms       (83 %), step = 800 us          (4 %)
    pss: time = 18.2 ms       (91 %), step = 800 us          (4 %)
    pss: time = 19 ms         (95 %), step = 800 us          (4 %)
    pss: time = 20 ms        (100 %), step = 500.2 us      (2.5 %)
Total time required for tstab analysis `pss': CPU = 5.975 ms, elapsed = 6.05512 ms.
Time accumulated: CPU = 2.57948 s, elapsed = 3.23595 s.
Peak resident memory used = 226 Mbytes.

Conv norm = 29.8, max dV(vout_filt) = -10.2397 mV, took 10 ms.

Important parameter values in pss iteration:
    start = 0 s
    outputstart = 0 s
    stop = 20 ms
    period = 20 ms
    maxperiods = 20
    steadyratio = 10e-03
    step = 20 us
    maxstep = 100 us
    ic = all
    useprevic = no
    skipdc = no
    reltol = 100e-06
    abstol(V) = 1 uV
    abstol(I) = 1 pA
    temp = 27 C
    tnom = 27 C
    tempeffects = all
    errpreset = conservative
    method = gear2only
    lteratio = 10
    relref = sigglobal
    cmin = 0 F
    gmin = 1 pS
    rabsshort = 1 mOhm


Notice from spectre during periodic steady state analysis `pss', during Monte Carlo analysis `mc1'.
    12 warnings suppressed.


============================
`pss': time = (0 s -> 20 ms)
============================
    pss: time = 512.5 us    (2.56 %), step = 12.5 us     (62.5 m%)
    pss: time = 1.512 ms    (7.56 %), step = 12.5 us     (62.5 m%)
    pss: time = 2.512 ms    (12.6 %), step = 12.5 us     (62.5 m%)
    pss: time = 3.512 ms    (17.6 %), step = 12.5 us     (62.5 m%)
    pss: time = 4.5 ms      (22.5 %), step = 12.5 us     (62.5 m%)
    pss: time = 5.5 ms      (27.5 %), step = 12.5 us     (62.5 m%)
    pss: time = 6.5 ms      (32.5 %), step = 12.5 us     (62.5 m%)
    pss: time = 7.5 ms      (37.5 %), step = 12.5 us     (62.5 m%)
    pss: time = 8.5 ms      (42.5 %), step = 12.5 us     (62.5 m%)
    pss: time = 9.5 ms      (47.5 %), step = 12.5 us     (62.5 m%)
    pss: time = 10.5 ms     (52.5 %), step = 12.5 us     (62.5 m%)
    pss: time = 11.5 ms     (57.5 %), step = 12.5 us     (62.5 m%)
    pss: time = 12.5 ms     (62.5 %), step = 12.5 us     (62.5 m%)
    pss: time = 13.5 ms     (67.5 %), step = 12.5 us     (62.5 m%)
    pss: time = 14.5 ms     (72.5 %), step = 12.5 us     (62.5 m%)
    pss: time = 15.5 ms     (77.5 %), step = 12.5 us     (62.5 m%)
    pss: time = 16.5 ms     (82.5 %), step = 12.5 us     (62.5 m%)
    pss: time = 17.5 ms     (87.5 %), step = 12.5 us     (62.5 m%)
    pss: time = 18.5 ms     (92.5 %), step = 12.5 us     (62.5 m%)
    pss: time = 19.51 ms    (97.6 %), step = 12.5 us     (62.5 m%)
Conv norm = 251e-03, max dV(vout_filt) = 24.7763 uV, took 380 ms.


Opening the PSF file ../psf/mc1_separate/057/pss.td.pss ...

Opening the PSF file ../psf/mc1_separate/057/pss.fd.pss ...

============================
`pss': time = (0 s -> 20 ms)
============================
    pss: time = 512.5 us    (2.56 %), step = 12.5 us     (62.5 m%)
    pss: time = 1.512 ms    (7.56 %), step = 12.5 us     (62.5 m%)
    pss: time = 2.512 ms    (12.6 %), step = 12.5 us     (62.5 m%)
    pss: time = 3.512 ms    (17.6 %), step = 12.5 us     (62.5 m%)
    pss: time = 4.5 ms      (22.5 %), step = 12.5 us     (62.5 m%)
    pss: time = 5.5 ms      (27.5 %), step = 12.5 us     (62.5 m%)
    pss: time = 6.5 ms      (32.5 %), step = 12.5 us     (62.5 m%)
    pss: time = 7.5 ms      (37.5 %), step = 12.5 us     (62.5 m%)
    pss: time = 8.5 ms      (42.5 %), step = 12.5 us     (62.5 m%)
    pss: time = 9.5 ms      (47.5 %), step = 12.5 us     (62.5 m%)
    pss: time = 10.5 ms     (52.5 %), step = 12.5 us     (62.5 m%)
    pss: time = 11.5 ms     (57.5 %), step = 12.5 us     (62.5 m%)
    pss: time = 12.5 ms     (62.5 %), step = 12.5 us     (62.5 m%)
    pss: time = 13.5 ms     (67.5 %), step = 12.5 us     (62.5 m%)
    pss: time = 14.5 ms     (72.5 %), step = 12.5 us     (62.5 m%)
    pss: time = 15.5 ms     (77.5 %), step = 12.5 us     (62.5 m%)
    pss: time = 16.5 ms     (82.5 %), step = 12.5 us     (62.5 m%)
    pss: time = 17.5 ms     (87.5 %), step = 12.5 us     (62.5 m%)
    pss: time = 18.5 ms     (92.5 %), step = 12.5 us     (62.5 m%)
    pss: time = 19.51 ms    (97.6 %), step = 12.5 us     (62.5 m%)

Maximum value achieved for any signal of each quantity: 
V: V(net2) = 3.3 V
I: I(V0:p) = 6.508 uA
Initial condition solution time: CPU = 2.585 ms, elapsed = 2.58803 ms.
pss: The steady-state solution was achieved in 2 iterations.
Number of accepted pss steps =             1600
Total time required for pss analysis `pss': CPU = 815.289 ms, elapsed = 833.036 ms, util. = 97.9%.
Time accumulated: CPU = 3.37809 s, elapsed = 4.03836 s.
Peak resident memory used = 226 Mbytes.

modelParameter: writing model parameter values to rawfile.

Opening the PSF file ../psf/mc1_separate/057/modelParameter.info ...
element: writing instance parameter values to rawfile.

Opening the PSF file ../psf/mc1_separate/057/element.info ...
outputParameter: writing output parameter values to rawfile.

Opening the PSF file ../psf/mc1_separate/057/outputParameter.info ...
designParamVals: writing netlist parameters to rawfile.

Opening the PSFASCII file ../psf/mc1_separate/057/designParamVals.info ...
primitives: writing primitives to rawfile.

Opening the PSFASCII file ../psf/mc1_separate/057/primitives.info.primitives ...
subckts: writing subcircuits to rawfile.

Opening the PSFASCII file ../psf/mc1_separate/057/subckts.info.subckts ...
    mc1: iteration = 57            (25 %), step = 1            (12.5 %)
58  37.50% 

*************************************************
Transient Analysis `tran': time = (0 s -> 100 ms)
*************************************************

Opening the PSF file ../psf/mc1_separate/058/tran.tran.tran ...

Notice from spectre during IC analysis, during transient analysis `tran', during Monte Carlo analysis `mc1'.
    Bad pivoting is found during DC analysis. Option dc_pivot_check=yes is recommended for possible improvement of convergence.
Warning from spectre during check, during IC analysis, during transient analysis `tran', during Monte Carlo analysis `mc1'.
    WARNING (CMI-2943): Parameter checks have been ignored because the valid value for parameter 'trise' could not be found in 'C1'.
    WARNING (CMI-2943): Parameter checks have been ignored because the valid value for parameter 'trise' could not be found in 'I0.C8<0>_turbo_m4.C1'.
    WARNING (CMI-2943): Parameter checks have been ignored because the valid value for parameter 'trise' could not be found in 'I0.C9<0>_turbo_m8.C1'.
    WARNING (CMI-2943): Parameter checks have been ignored because the valid value for parameter 'trise' could not be found in 'I0.C7<0>_turbo_m2.C1'.
    WARNING (CMI-2943): Parameter checks have been ignored because the valid value for parameter 'trise' could not be found in 'I0.R2.CM'.
        Further occurrences of this warning will be suppressed.

Convergence achieved in 16 iterations.
DC simulation time: CPU = 2.179 ms, elapsed = 2.17915 ms.
Important parameter values:
    start = 0 s
    outputstart = 0 s
    stop = 100 ms
    step = 100 us
    maxstep = 1 ms
    ic = all
    useprevic = no
    skipdc = no
    reltol = 100e-06
    abstol(V) = 1 uV
    abstol(I) = 1 pA
    temp = 27 C
    tnom = 27 C
    tempeffects = all
    errpreset = conservative_sigglobal
    method = gear2only
    lteratio = 10
    relref = sigglobal
    cmin = 0 F
    gmin = 1 pS
    rabsshort = 1 mOhm


Notice from spectre during transient analysis `tran', during Monte Carlo analysis `mc1'.
    Multithreading is disabled due to the size of the design being too small.


Output and IC/nodeset summary:
                 save   7       (current)
                 save   32      (voltage)

    tran: time = 2.909 ms    (2.91 %), step = 935 us       (935 m%)
    tran: time = 7.847 ms    (7.85 %), step = 1 ms            (1 %)
    tran: time = 13.3 ms     (13.3 %), step = 871.2 us     (871 m%)
    tran: time = 18.21 ms    (18.2 %), step = 1 ms            (1 %)
    tran: time = 22.73 ms    (22.7 %), step = 854.7 us     (855 m%)
    tran: time = 27.56 ms    (27.6 %), step = 1 ms            (1 %)
    tran: time = 33.05 ms      (33 %), step = 862.8 us     (863 m%)
    tran: time = 37.92 ms    (37.9 %), step = 1 ms            (1 %)
    tran: time = 43.36 ms    (43.4 %), step = 873.5 us     (873 m%)
    tran: time = 48.28 ms    (48.3 %), step = 1 ms            (1 %)
    tran: time = 52.79 ms    (52.8 %), step = 856.1 us     (856 m%)
    tran: time = 57.63 ms    (57.6 %), step = 1 ms            (1 %)
    tran: time = 63.11 ms    (63.1 %), step = 864.6 us     (865 m%)
    tran: time = 67.99 ms      (68 %), step = 1 ms            (1 %)
    tran: time = 72.54 ms    (72.5 %), step = 851.1 us     (851 m%)
    tran: time = 78.35 ms    (78.3 %), step = 1 ms            (1 %)
    tran: time = 82.85 ms    (82.9 %), step = 857.5 us     (857 m%)
    tran: time = 87.7 ms     (87.7 %), step = 1 ms            (1 %)
    tran: time = 93.17 ms    (93.2 %), step = 866.7 us     (867 m%)
    tran: time = 98.07 ms    (98.1 %), step = 1 ms            (1 %)
Number of accepted tran steps =             112

Maximum value achieved for any signal of each quantity: 
V: V(net2) = 3.3 V
I: I(V0:p) = 6.267 uA

~~~~~~~~~~~~~~~~~~~~~~~~~~~~~~~~~
Post-Transient Simulation Summary
~~~~~~~~~~~~~~~~~~~~~~~~~~~~~~~~~
   -   Non-default settings that could significantly slow down simulation
          errpreset = conservative_sigglobal, default moderate
~~~~~~~~~~~~~~~~~~~~~~~~~~~~~~~~~


During simulation, the CPU load for active processors is :
         0 (99.5 %)      1 (32.0 %)      2 (79.1 %)      3 (49.9 %)
         4 (27.2 %)      5 (45.7 %)      6 (64.6 %)      7 (20.3 %)
         8 (67.0 %)      9 (27.3 %)     10 (52.2 %)     11 (66.1 %)
        12 (45.3 %)     13 (39.9 %)     14 (39.8 %)     15 (75.1 %)
        16 (82.0 %)     17 (18.5 %)     18 (52.2 %)     19 (29.4 %)
        20 (28.6 %)     21 (58.0 %)     22 (59.0 %)     23 (71.2 %)
        24 (33.7 %)     25 (100.0 %)    26 (24.1 %)     27 (27.7 %)
        28 (66.2 %)     29 (100.0 %)    30 (46.5 %)     31 (54.6 %)
        32 (32.6 %)     33 (26.9 %)     34 (28.2 %)     35 (64.4 %)
        36 (100.0 %)    37 (50.4 %)     38 (46.6 %)     39 (21.1 %)
        40 (90.4 %)     41 (30.3 %)     42 (38.1 %)     43 (44.5 %)
        44 (43.8 %)     45 (50.9 %)     46 (39.9 %)     47 (30.8 %)
        Total: 2421.5%
Initial condition solution time: CPU = 2.218 ms, elapsed = 2.22015 ms.
Intrinsic tran analysis time:    CPU = 21.594 ms, elapsed = 22.671 ms.
Total time required for tran analysis `tran': CPU = 26.085 ms, elapsed = 27.7431 ms, util. = 94%.
Time accumulated: CPU = 3.43821 s, elapsed = 4.10918 s.
Peak resident memory used = 226 Mbytes.


Notice from spectre during transient analysis `tran', during Monte Carlo analysis `mc1'.
    12 warnings suppressed.

finalTimeOP: writing operating point information to rawfile.

Opening the PSF file ../psf/mc1_separate/058/finalTimeOP.info ...
Licensing Information:
[13:18:20.356240] Periodic Lic check successful


**************************************************
Periodic Steady-State Analysis `pss': fund = 50 Hz
**************************************************

Warning from spectre during check, during IC analysis, during periodic steady state analysis `pss', during Monte Carlo analysis `mc1'.
    WARNING (CMI-2943): Parameter checks have been ignored because the valid value for parameter 'trise' could not be found in 'C1'.
    WARNING (CMI-2943): Parameter checks have been ignored because the valid value for parameter 'trise' could not be found in 'I0.C8<0>_turbo_m4.C1'.
    WARNING (CMI-2943): Parameter checks have been ignored because the valid value for parameter 'trise' could not be found in 'I0.C9<0>_turbo_m8.C1'.
    WARNING (CMI-2943): Parameter checks have been ignored because the valid value for parameter 'trise' could not be found in 'I0.C7<0>_turbo_m2.C1'.
    WARNING (CMI-2943): Parameter checks have been ignored because the valid value for parameter 'trise' could not be found in 'I0.R2.CM'.
        Further occurrences of this warning will be suppressed.

Convergence achieved in 16 iterations.
DC simulation time: CPU = 2.44 ms, elapsed = 2.43998 ms.

==================================
pss `tstab': time = (0 s -> 20 ms)
==================================

Output and IC/nodeset summary:
                 save   7       (current)
                 save   32      (voltage)

Important parameter values in tstab integration:
    start = 0 s
    outputstart = 0 s
    stop = 20 ms
    period = 20 ms
    maxperiods = 20
    step = 20 us
    maxstep = 800 us
    ic = all
    useprevic = no
    skipdc = no
    reltol = 1e-03
    abstol(V) = 1 uV
    abstol(I) = 1 pA
    temp = 27 C
    tnom = 27 C
    tempeffects = all
    method = traponly
    lteratio = 3.5
    relref = sigglobal
    cmin = 0 F
    gmin = 1 pS
    rabsshort = 1 mOhm

    pss: time = 525.7 us    (2.63 %), step = 266.1 us     (1.33 %)
    pss: time = 2.207 ms      (11 %), step = 800 us          (4 %)
    pss: time = 3.007 ms      (15 %), step = 800 us          (4 %)
    pss: time = 3.807 ms      (19 %), step = 800 us          (4 %)
    pss: time = 4.607 ms      (23 %), step = 800 us          (4 %)
    pss: time = 6.207 ms      (31 %), step = 800 us          (4 %)
    pss: time = 7.007 ms      (35 %), step = 800 us          (4 %)
    pss: time = 7.807 ms      (39 %), step = 800 us          (4 %)
    pss: time = 8.607 ms      (43 %), step = 800 us          (4 %)
    pss: time = 10.21 ms      (51 %), step = 800 us          (4 %)
    pss: time = 11.01 ms      (55 %), step = 800 us          (4 %)
    pss: time = 11.81 ms      (59 %), step = 800 us          (4 %)
    pss: time = 12.61 ms      (63 %), step = 800 us          (4 %)
    pss: time = 14.21 ms      (71 %), step = 800 us          (4 %)
    pss: time = 15.01 ms      (75 %), step = 800 us          (4 %)
    pss: time = 15.81 ms      (79 %), step = 800 us          (4 %)
    pss: time = 16.61 ms      (83 %), step = 800 us          (4 %)
    pss: time = 18.21 ms      (91 %), step = 800 us          (4 %)
    pss: time = 19.01 ms      (95 %), step = 800 us          (4 %)
    pss: time = 19.5 ms     (97.5 %), step = 496.6 us     (2.48 %)
Total time required for tstab analysis `pss': CPU = 6.128 ms, elapsed = 6.12807 ms.
Time accumulated: CPU = 3.46047 s, elapsed = 4.14778 s.
Peak resident memory used = 226 Mbytes.

Conv norm = 30, max dV(vout_filt) = -10.3244 mV, took 0 s.

Important parameter values in pss iteration:
    start = 0 s
    outputstart = 0 s
    stop = 20 ms
    period = 20 ms
    maxperiods = 20
    steadyratio = 10e-03
    step = 20 us
    maxstep = 100 us
    ic = all
    useprevic = no
    skipdc = no
    reltol = 100e-06
    abstol(V) = 1 uV
    abstol(I) = 1 pA
    temp = 27 C
    tnom = 27 C
    tempeffects = all
    errpreset = conservative
    method = gear2only
    lteratio = 10
    relref = sigglobal
    cmin = 0 F
    gmin = 1 pS
    rabsshort = 1 mOhm


Notice from spectre during periodic steady state analysis `pss', during Monte Carlo analysis `mc1'.
    12 warnings suppressed.


============================
`pss': time = (0 s -> 20 ms)
============================
    pss: time = 512.5 us    (2.56 %), step = 12.5 us     (62.5 m%)
    pss: time = 1.512 ms    (7.56 %), step = 12.5 us     (62.5 m%)
    pss: time = 2.512 ms    (12.6 %), step = 12.5 us     (62.5 m%)
    pss: time = 3.512 ms    (17.6 %), step = 12.5 us     (62.5 m%)
    pss: time = 4.5 ms      (22.5 %), step = 12.5 us     (62.5 m%)
    pss: time = 5.5 ms      (27.5 %), step = 12.5 us     (62.5 m%)
    pss: time = 6.5 ms      (32.5 %), step = 12.5 us     (62.5 m%)
    pss: time = 7.5 ms      (37.5 %), step = 12.5 us     (62.5 m%)
    pss: time = 8.5 ms      (42.5 %), step = 12.5 us     (62.5 m%)
    pss: time = 9.5 ms      (47.5 %), step = 12.5 us     (62.5 m%)
    pss: time = 10.5 ms     (52.5 %), step = 12.5 us     (62.5 m%)
    pss: time = 11.5 ms     (57.5 %), step = 12.5 us     (62.5 m%)
    pss: time = 12.5 ms     (62.5 %), step = 12.5 us     (62.5 m%)
    pss: time = 13.5 ms     (67.5 %), step = 12.5 us     (62.5 m%)
    pss: time = 14.5 ms     (72.5 %), step = 12.5 us     (62.5 m%)
    pss: time = 15.5 ms     (77.5 %), step = 12.5 us     (62.5 m%)
    pss: time = 16.5 ms     (82.5 %), step = 12.5 us     (62.5 m%)
    pss: time = 17.5 ms     (87.5 %), step = 12.5 us     (62.5 m%)
    pss: time = 18.5 ms     (92.5 %), step = 12.5 us     (62.5 m%)
    pss: time = 19.51 ms    (97.6 %), step = 12.5 us     (62.5 m%)
Conv norm = 618e-03, max dV(vout) = -61.2383 uV, took 390 ms.


Opening the PSF file ../psf/mc1_separate/058/pss.td.pss ...

Opening the PSF file ../psf/mc1_separate/058/pss.fd.pss ...

============================
`pss': time = (0 s -> 20 ms)
============================
    pss: time = 512.5 us    (2.56 %), step = 12.5 us     (62.5 m%)
    pss: time = 1.512 ms    (7.56 %), step = 12.5 us     (62.5 m%)
    pss: time = 2.512 ms    (12.6 %), step = 12.5 us     (62.5 m%)
    pss: time = 3.512 ms    (17.6 %), step = 12.5 us     (62.5 m%)
    pss: time = 4.5 ms      (22.5 %), step = 12.5 us     (62.5 m%)
    pss: time = 5.5 ms      (27.5 %), step = 12.5 us     (62.5 m%)
    pss: time = 6.5 ms      (32.5 %), step = 12.5 us     (62.5 m%)
    pss: time = 7.5 ms      (37.5 %), step = 12.5 us     (62.5 m%)
    pss: time = 8.5 ms      (42.5 %), step = 12.5 us     (62.5 m%)
    pss: time = 9.5 ms      (47.5 %), step = 12.5 us     (62.5 m%)
    pss: time = 10.5 ms     (52.5 %), step = 12.5 us     (62.5 m%)
    pss: time = 11.5 ms     (57.5 %), step = 12.5 us     (62.5 m%)
    pss: time = 12.5 ms     (62.5 %), step = 12.5 us     (62.5 m%)
    pss: time = 13.5 ms     (67.5 %), step = 12.5 us     (62.5 m%)
    pss: time = 14.5 ms     (72.5 %), step = 12.5 us     (62.5 m%)
    pss: time = 15.5 ms     (77.5 %), step = 12.5 us     (62.5 m%)
    pss: time = 16.5 ms     (82.5 %), step = 12.5 us     (62.5 m%)
    pss: time = 17.5 ms     (87.5 %), step = 12.5 us     (62.5 m%)
    pss: time = 18.5 ms     (92.5 %), step = 12.5 us     (62.5 m%)
    pss: time = 19.51 ms    (97.6 %), step = 12.5 us     (62.5 m%)

Maximum value achieved for any signal of each quantity: 
V: V(net2) = 3.3 V
I: I(V0:p) = 6.267 uA
Initial condition solution time: CPU = 2.486 ms, elapsed = 2.4879 ms.
pss: The steady-state solution was achieved in 2 iterations.
Number of accepted pss steps =             1600
Total time required for pss analysis `pss': CPU = 824.045 ms, elapsed = 842.282 ms, util. = 97.8%.
Time accumulated: CPU = 4.26767 s, elapsed = 4.95926 s.
Peak resident memory used = 226 Mbytes.

modelParameter: writing model parameter values to rawfile.

Opening the PSF file ../psf/mc1_separate/058/modelParameter.info ...
element: writing instance parameter values to rawfile.

Opening the PSF file ../psf/mc1_separate/058/element.info ...
outputParameter: writing output parameter values to rawfile.

Opening the PSF file ../psf/mc1_separate/058/outputParameter.info ...
designParamVals: writing netlist parameters to rawfile.

Opening the PSFASCII file ../psf/mc1_separate/058/designParamVals.info ...
primitives: writing primitives to rawfile.

Opening the PSFASCII file ../psf/mc1_separate/058/primitives.info.primitives ...
subckts: writing subcircuits to rawfile.

Opening the PSFASCII file ../psf/mc1_separate/058/subckts.info.subckts ...
    mc1: iteration = 58          (37.5 %), step = 1            (12.5 %)
59  50.00% 

*************************************************
Transient Analysis `tran': time = (0 s -> 100 ms)
*************************************************

Opening the PSF file ../psf/mc1_separate/059/tran.tran.tran ...

Notice from spectre during IC analysis, during transient analysis `tran', during Monte Carlo analysis `mc1'.
    Bad pivoting is found during DC analysis. Option dc_pivot_check=yes is recommended for possible improvement of convergence.
Warning from spectre during check, during IC analysis, during transient analysis `tran', during Monte Carlo analysis `mc1'.
    WARNING (CMI-2943): Parameter checks have been ignored because the valid value for parameter 'trise' could not be found in 'C1'.
    WARNING (CMI-2943): Parameter checks have been ignored because the valid value for parameter 'trise' could not be found in 'I0.C8<0>_turbo_m4.C1'.
    WARNING (CMI-2943): Parameter checks have been ignored because the valid value for parameter 'trise' could not be found in 'I0.C9<0>_turbo_m8.C1'.
    WARNING (CMI-2943): Parameter checks have been ignored because the valid value for parameter 'trise' could not be found in 'I0.C7<0>_turbo_m2.C1'.
    WARNING (CMI-2943): Parameter checks have been ignored because the valid value for parameter 'trise' could not be found in 'I0.R2.CM'.
        Further occurrences of this warning will be suppressed.

Convergence achieved in 17 iterations.
DC simulation time: CPU = 2.288 ms, elapsed = 2.28786 ms.
Important parameter values:
    start = 0 s
    outputstart = 0 s
    stop = 100 ms
    step = 100 us
    maxstep = 1 ms
    ic = all
    useprevic = no
    skipdc = no
    reltol = 100e-06
    abstol(V) = 1 uV
    abstol(I) = 1 pA
    temp = 27 C
    tnom = 27 C
    tempeffects = all
    errpreset = conservative_sigglobal
    method = gear2only
    lteratio = 10
    relref = sigglobal
    cmin = 0 F
    gmin = 1 pS
    rabsshort = 1 mOhm


Notice from spectre during transient analysis `tran', during Monte Carlo analysis `mc1'.
    Multithreading is disabled due to the size of the design being too small.


Output and IC/nodeset summary:
                 save   7       (current)
                 save   32      (voltage)

    tran: time = 2.905 ms    (2.91 %), step = 933.2 us     (933 m%)
    tran: time = 7.843 ms    (7.84 %), step = 1 ms            (1 %)
    tran: time = 13.29 ms    (13.3 %), step = 871 us       (871 m%)
    tran: time = 18.21 ms    (18.2 %), step = 1 ms            (1 %)
    tran: time = 22.73 ms    (22.7 %), step = 854.6 us     (855 m%)
    tran: time = 27.56 ms    (27.6 %), step = 1 ms            (1 %)
    tran: time = 33.04 ms      (33 %), step = 862.7 us     (863 m%)
    tran: time = 37.91 ms    (37.9 %), step = 1 ms            (1 %)
    tran: time = 43.35 ms    (43.4 %), step = 873.3 us     (873 m%)
    tran: time = 48.27 ms    (48.3 %), step = 1 ms            (1 %)
    tran: time = 52.79 ms    (52.8 %), step = 856 us       (856 m%)
    tran: time = 57.62 ms    (57.6 %), step = 1 ms            (1 %)
    tran: time = 63.1 ms     (63.1 %), step = 864.5 us     (864 m%)
    tran: time = 67.99 ms      (68 %), step = 1 ms            (1 %)
    tran: time = 72.54 ms    (72.5 %), step = 851 us       (851 m%)
    tran: time = 78.34 ms    (78.3 %), step = 1 ms            (1 %)
    tran: time = 82.85 ms    (82.8 %), step = 857.3 us     (857 m%)
    tran: time = 87.69 ms    (87.7 %), step = 1 ms            (1 %)
    tran: time = 93.16 ms    (93.2 %), step = 866.5 us     (866 m%)
    tran: time = 98.06 ms    (98.1 %), step = 1 ms            (1 %)
Number of accepted tran steps =             112

Maximum value achieved for any signal of each quantity: 
V: V(net2) = 3.3 V
I: I(V0:p) = 6.485 uA

~~~~~~~~~~~~~~~~~~~~~~~~~~~~~~~~~
Post-Transient Simulation Summary
~~~~~~~~~~~~~~~~~~~~~~~~~~~~~~~~~
   -   Non-default settings that could significantly slow down simulation
          errpreset = conservative_sigglobal, default moderate
~~~~~~~~~~~~~~~~~~~~~~~~~~~~~~~~~


During simulation, the CPU load for active processors is :
         0 (99.6 %)      1 (35.0 %)      2 (82.4 %)      3 (50.4 %)
         4 (35.9 %)      5 (54.7 %)      6 (71.3 %)      7 (25.6 %)
         8 (64.3 %)      9 (28.0 %)     10 (53.8 %)     11 (66.8 %)
        12 (45.7 %)     13 (45.5 %)     14 (42.9 %)     15 (67.9 %)
        16 (85.2 %)     17 (21.4 %)     18 (57.0 %)     19 (30.3 %)
        20 (30.8 %)     21 (57.1 %)     22 (53.4 %)     23 (69.4 %)
        24 (30.6 %)     25 (100.0 %)    26 (37.0 %)     27 (32.3 %)
        28 (56.9 %)     29 (100.0 %)    30 (40.0 %)     31 (50.2 %)
        32 (43.8 %)     33 (26.8 %)     34 (25.8 %)     35 (69.0 %)
        36 (96.0 %)     37 (57.8 %)     38 (54.2 %)     39 (24.2 %)
        40 (79.8 %)     41 (38.1 %)     42 (41.7 %)     43 (47.4 %)
        44 (45.3 %)     45 (49.3 %)     46 (44.8 %)     47 (27.7 %)
        Total: 2493.1%
Initial condition solution time: CPU = 2.327 ms, elapsed = 2.32887 ms.
Intrinsic tran analysis time:    CPU = 21.763 ms, elapsed = 22.9549 ms.
Total time required for tran analysis `tran': CPU = 26.323 ms, elapsed = 28.0921 ms, util. = 93.7%.
Time accumulated: CPU = 4.32983 s, elapsed = 5.03361 s.
Peak resident memory used = 226 Mbytes.


Notice from spectre during transient analysis `tran', during Monte Carlo analysis `mc1'.
    12 warnings suppressed.

finalTimeOP: writing operating point information to rawfile.

Opening the PSF file ../psf/mc1_separate/059/finalTimeOP.info ...
Licensing Information:
[13:18:21.279227] Periodic Lic check successful


**************************************************
Periodic Steady-State Analysis `pss': fund = 50 Hz
**************************************************

Notice from spectre during IC analysis, during periodic steady state analysis `pss', during Monte Carlo analysis `mc1'.
    Bad pivoting is found during DC analysis. Option dc_pivot_check=yes is recommended for possible improvement of convergence.
Warning from spectre during check, during IC analysis, during periodic steady state analysis `pss', during Monte Carlo analysis `mc1'.
    WARNING (CMI-2943): Parameter checks have been ignored because the valid value for parameter 'trise' could not be found in 'C1'.
    WARNING (CMI-2943): Parameter checks have been ignored because the valid value for parameter 'trise' could not be found in 'I0.C8<0>_turbo_m4.C1'.
    WARNING (CMI-2943): Parameter checks have been ignored because the valid value for parameter 'trise' could not be found in 'I0.C9<0>_turbo_m8.C1'.
    WARNING (CMI-2943): Parameter checks have been ignored because the valid value for parameter 'trise' could not be found in 'I0.C7<0>_turbo_m2.C1'.
    WARNING (CMI-2943): Parameter checks have been ignored because the valid value for parameter 'trise' could not be found in 'I0.R2.CM'.
        Further occurrences of this warning will be suppressed.

Convergence achieved in 17 iterations.
DC simulation time: CPU = 2.673 ms, elapsed = 2.67291 ms.

==================================
pss `tstab': time = (0 s -> 20 ms)
==================================

Output and IC/nodeset summary:
                 save   7       (current)
                 save   32      (voltage)

Important parameter values in tstab integration:
    start = 0 s
    outputstart = 0 s
    stop = 20 ms
    period = 20 ms
    maxperiods = 20
    step = 20 us
    maxstep = 800 us
    ic = all
    useprevic = no
    skipdc = no
    reltol = 1e-03
    abstol(V) = 1 uV
    abstol(I) = 1 pA
    temp = 27 C
    tnom = 27 C
    tempeffects = all
    method = traponly
    lteratio = 3.5
    relref = sigglobal
    cmin = 0 F
    gmin = 1 pS
    rabsshort = 1 mOhm

    pss: time = 505.7 us    (2.53 %), step = 254.7 us     (1.27 %)
    pss: time = 2.17 ms     (10.8 %), step = 800 us          (4 %)
    pss: time = 2.97 ms     (14.8 %), step = 800 us          (4 %)
    pss: time = 3.77 ms     (18.8 %), step = 800 us          (4 %)
[...]
Total time required for tstab analysis `pss': CPU = 6.46 ms, elapsed = 6.45781 ms.
Time accumulated: CPU = 7.04691 s, elapsed = 7.86575 s.
Peak resident memory used = 226 Mbytes.

Conv norm = 28.8, max dV(vout_filt) = -9.92332 mV, took 10 ms.

Important parameter values in pss iteration:
    start = 0 s
    outputstart = 0 s
    stop = 20 ms
    period = 20 ms
    maxperiods = 20
    steadyratio = 10e-03
    step = 20 us
    maxstep = 100 us
    ic = all
    useprevic = no
    skipdc = no
    reltol = 100e-06
    abstol(V) = 1 uV
    abstol(I) = 1 pA
    temp = 27 C
    tnom = 27 C
    tempeffects = all
    errpreset = conservative
    method = gear2only
    lteratio = 10
    relref = sigglobal
    cmin = 0 F
    gmin = 1 pS
    rabsshort = 1 mOhm


Notice from spectre during periodic steady state analysis `pss', during Monte Carlo analysis `mc1'.
    12 warnings suppressed.


============================
`pss': time = (0 s -> 20 ms)
============================
    pss: time = 512.5 us    (2.56 %), step = 12.5 us     (62.5 m%)
    pss: time = 1.512 ms    (7.56 %), step = 12.5 us     (62.5 m%)
    pss: time = 2.512 ms    (12.6 %), step = 12.5 us     (62.5 m%)
    pss: time = 3.512 ms    (17.6 %), step = 12.5 us     (62.5 m%)
    pss: time = 4.5 ms      (22.5 %), step = 12.5 us     (62.5 m%)
    pss: time = 5.5 ms      (27.5 %), step = 12.5 us     (62.5 m%)
    pss: time = 6.5 ms      (32.5 %), step = 12.5 us     (62.5 m%)
    pss: time = 7.5 ms      (37.5 %), step = 12.5 us     (62.5 m%)
    pss: time = 8.5 ms      (42.5 %), step = 12.5 us     (62.5 m%)
    pss: time = 9.5 ms      (47.5 %), step = 12.5 us     (62.5 m%)
    pss: time = 10.5 ms     (52.5 %), step = 12.5 us     (62.5 m%)
    pss: time = 11.5 ms     (57.5 %), step = 12.5 us     (62.5 m%)
    pss: time = 12.5 ms     (62.5 %), step = 12.5 us     (62.5 m%)
    pss: time = 13.5 ms     (67.5 %), step = 12.5 us     (62.5 m%)
    pss: time = 14.5 ms     (72.5 %), step = 12.5 us     (62.5 m%)
    pss: time = 15.5 ms     (77.5 %), step = 12.5 us     (62.5 m%)
    pss: time = 16.5 ms     (82.5 %), step = 12.5 us     (62.5 m%)
    pss: time = 17.5 ms     (87.5 %), step = 12.5 us     (62.5 m%)
    pss: time = 18.5 ms     (92.5 %), step = 12.5 us     (62.5 m%)
    pss: time = 19.51 ms    (97.6 %), step = 12.5 us     (62.5 m%)
Conv norm = 219e-03, max dV(vout_filt) = 21.6677 uV, took 380 ms.


Opening the PSF file ../psf/mc1_separate/062/pss.td.pss ...

Opening the PSF file ../psf/mc1_separate/062/pss.fd.pss ...

============================
`pss': time = (0 s -> 20 ms)
============================
    pss: time = 512.5 us    (2.56 %), step = 12.5 us     (62.5 m%)
    pss: time = 1.512 ms    (7.56 %), step = 12.5 us     (62.5 m%)
    pss: time = 2.512 ms    (12.6 %), step = 12.5 us     (62.5 m%)
    pss: time = 3.512 ms    (17.6 %), step = 12.5 us     (62.5 m%)
    pss: time = 4.5 ms      (22.5 %), step = 12.5 us     (62.5 m%)
    pss: time = 5.5 ms      (27.5 %), step = 12.5 us     (62.5 m%)
    pss: time = 6.5 ms      (32.5 %), step = 12.5 us     (62.5 m%)
    pss: time = 7.5 ms      (37.5 %), step = 12.5 us     (62.5 m%)
    pss: time = 8.5 ms      (42.5 %), step = 12.5 us     (62.5 m%)
    pss: time = 9.5 ms      (47.5 %), step = 12.5 us     (62.5 m%)
    pss: time = 10.5 ms     (52.5 %), step = 12.5 us     (62.5 m%)
    pss: time = 11.5 ms     (57.5 %), step = 12.5 us     (62.5 m%)
    pss: time = 12.5 ms     (62.5 %), step = 12.5 us     (62.5 m%)
    pss: time = 13.5 ms     (67.5 %), step = 12.5 us     (62.5 m%)
    pss: time = 14.5 ms     (72.5 %), step = 12.5 us     (62.5 m%)
    pss: time = 15.5 ms     (77.5 %), step = 12.5 us     (62.5 m%)
    pss: time = 16.5 ms     (82.5 %), step = 12.5 us     (62.5 m%)
    pss: time = 17.5 ms     (87.5 %), step = 12.5 us     (62.5 m%)
    pss: time = 18.5 ms     (92.5 %), step = 12.5 us     (62.5 m%)
    pss: time = 19.51 ms    (97.6 %), step = 12.5 us     (62.5 m%)

Maximum value achieved for any signal of each quantity: 
V: V(net2) = 3.3 V
I: I(V0:p) = 6.329 uA
Initial condition solution time: CPU = 2.473 ms, elapsed = 2.47598 ms.
pss: The steady-state solution was achieved in 2 iterations.
Number of accepted pss steps =             1600
Total time required for pss analysis `pss': CPU = 821.411 ms, elapsed = 841.041 ms, util. = 97.7%.
Time accumulated: CPU = 7.85118 s, elapsed = 8.67359 s.
Peak resident memory used = 226 Mbytes.

modelParameter: writing model parameter values to rawfile.

Opening the PSF file ../psf/mc1_separate/062/modelParameter.info ...
element: writing instance parameter values to rawfile.

Opening the PSF file ../psf/mc1_separate/062/element.info ...
outputParameter: writing output parameter values to rawfile.

Opening the PSF file ../psf/mc1_separate/062/outputParameter.info ...
designParamVals: writing netlist parameters to rawfile.

Opening the PSFASCII file ../psf/mc1_separate/062/designParamVals.info ...
primitives: writing primitives to rawfile.

Opening the PSFASCII file ../psf/mc1_separate/062/primitives.info.primitives ...
subckts: writing subcircuits to rawfile.

Opening the PSFASCII file ../psf/mc1_separate/062/subckts.info.subckts ...
    mc1: iteration = 62          (87.5 %), step = 1            (12.5 %)
63 100.00% 

*************************************************
Transient Analysis `tran': time = (0 s -> 100 ms)
*************************************************

Opening the PSF file ../psf/mc1_separate/063/tran.tran.tran ...

Notice from spectre during IC analysis, during transient analysis `tran', during Monte Carlo analysis `mc1'.
    Bad pivoting is found during DC analysis. Option dc_pivot_check=yes is recommended for possible improvement of convergence.
Warning from spectre during check, during IC analysis, during transient analysis `tran', during Monte Carlo analysis `mc1'.
    WARNING (CMI-2943): Parameter checks have been ignored because the valid value for parameter 'trise' could not be found in 'C1'.
    WARNING (CMI-2943): Parameter checks have been ignored because the valid value for parameter 'trise' could not be found in 'I0.C8<0>_turbo_m4.C1'.
    WARNING (CMI-2943): Parameter checks have been ignored because the valid value for parameter 'trise' could not be found in 'I0.C9<0>_turbo_m8.C1'.
    WARNING (CMI-2943): Parameter checks have been ignored because the valid value for parameter 'trise' could not be found in 'I0.C7<0>_turbo_m2.C1'.
    WARNING (CMI-2943): Parameter checks have been ignored because the valid value for parameter 'trise' could not be found in 'I0.R2.CM'.
        Further occurrences of this warning will be suppressed.

Convergence achieved in 19 iterations.
DC simulation time: CPU = 2.386 ms, elapsed = 2.38585 ms.
Important parameter values:
    start = 0 s
    outputstart = 0 s
    stop = 100 ms
    step = 100 us
    maxstep = 1 ms
    ic = all
    useprevic = no
    skipdc = no
    reltol = 100e-06
    abstol(V) = 1 uV
    abstol(I) = 1 pA
    temp = 27 C
    tnom = 27 C
    tempeffects = all
    errpreset = conservative_sigglobal
    method = gear2only
    lteratio = 10
    relref = sigglobal
    cmin = 0 F
    gmin = 1 pS
    rabsshort = 1 mOhm


Notice from spectre during transient analysis `tran', during Monte Carlo analysis `mc1'.
    Multithreading is disabled due to the size of the design being too small.


Output and IC/nodeset summary:
                 save   7       (current)
                 save   32      (voltage)

    tran: time = 2.907 ms    (2.91 %), step = 934.2 us     (934 m%)
    tran: time = 7.845 ms    (7.84 %), step = 1 ms            (1 %)
    tran: time = 13.29 ms    (13.3 %), step = 871 us       (871 m%)
    tran: time = 18.21 ms    (18.2 %), step = 1 ms            (1 %)
    tran: time = 22.73 ms    (22.7 %), step = 854.6 us     (855 m%)
    tran: time = 27.56 ms    (27.6 %), step = 1 ms            (1 %)
    tran: time = 33.04 ms      (33 %), step = 862.7 us     (863 m%)
    tran: time = 37.92 ms    (37.9 %), step = 1 ms            (1 %)
    tran: time = 43.35 ms    (43.4 %), step = 873.3 us     (873 m%)
    tran: time = 48.28 ms    (48.3 %), step = 1 ms            (1 %)
    tran: time = 52.79 ms    (52.8 %), step = 855.9 us     (856 m%)
    tran: time = 57.62 ms    (57.6 %), step = 1 ms            (1 %)
    tran: time = 63.1 ms     (63.1 %), step = 864.5 us     (864 m%)
    tran: time = 67.99 ms      (68 %), step = 1 ms            (1 %)
    tran: time = 72.54 ms    (72.5 %), step = 851 us       (851 m%)
    tran: time = 78.34 ms    (78.3 %), step = 1 ms            (1 %)
    tran: time = 82.85 ms    (82.8 %), step = 857.3 us     (857 m%)
    tran: time = 87.69 ms    (87.7 %), step = 1 ms            (1 %)
    tran: time = 93.16 ms    (93.2 %), step = 866.5 us     (866 m%)
    tran: time = 98.06 ms    (98.1 %), step = 1 ms            (1 %)
Number of accepted tran steps =             112

Maximum value achieved for any signal of each quantity: 
V: V(net2) = 3.3 V
I: I(V0:p) = 6.454 uA

~~~~~~~~~~~~~~~~~~~~~~~~~~~~~~~~~
Post-Transient Simulation Summary
~~~~~~~~~~~~~~~~~~~~~~~~~~~~~~~~~
   -   Non-default settings that could significantly slow down simulation
          errpreset = conservative_sigglobal, default moderate
~~~~~~~~~~~~~~~~~~~~~~~~~~~~~~~~~


During simulation, the CPU load for active processors is :
         0 (99.7 %)      1 (42.9 %)      2 (80.8 %)      3 (52.5 %)
         4 (40.0 %)      5 (60.2 %)      6 (83.5 %)      7 (52.1 %)
         8 (59.1 %)      9 (43.1 %)     10 (49.0 %)     11 (49.5 %)
        12 (54.4 %)     13 (44.5 %)     14 (45.9 %)     15 (67.8 %)
        16 (91.5 %)     17 (28.5 %)     18 (63.8 %)     19 (44.0 %)
        20 (38.3 %)     21 (55.4 %)     22 (54.8 %)     23 (54.9 %)
        24 (22.6 %)     25 (100.0 %)    26 (52.5 %)     27 (36.4 %)
        28 (52.7 %)     29 (100.0 %)    30 (40.4 %)     31 (44.6 %)
        32 (44.4 %)     33 (30.5 %)     34 (47.0 %)     35 (50.6 %)
        36 (84.3 %)     37 (52.2 %)     38 (73.9 %)     39 (42.2 %)
        40 (60.4 %)     41 (42.1 %)     42 (50.6 %)     43 (39.2 %)
        44 (60.9 %)     45 (69.4 %)     46 (41.1 %)     47 (29.5 %)
        Total: 2623.8%
Initial condition solution time: CPU = 2.425 ms, elapsed = 2.42591 ms.
Intrinsic tran analysis time:    CPU = 22.534 ms, elapsed = 23.8941 ms.
Total time required for tran analysis `tran': CPU = 27.172 ms, elapsed = 29.2308 ms, util. = 93%.
Time accumulated: CPU = 7.9195 s, elapsed = 8.75439 s.
Peak resident memory used = 226 Mbytes.


Notice from spectre during transient analysis `tran', during Monte Carlo analysis `mc1'.
    12 warnings suppressed.

finalTimeOP: writing operating point information to rawfile.

Opening the PSF file ../psf/mc1_separate/063/finalTimeOP.info ...
Licensing Information:
[13:18:25.000297] Periodic Lic check successful


**************************************************
Periodic Steady-State Analysis `pss': fund = 50 Hz
**************************************************

Warning from spectre during check, during IC analysis, during periodic steady state analysis `pss', during Monte Carlo analysis `mc1'.
    WARNING (CMI-2943): Parameter checks have been ignored because the valid value for parameter 'trise' could not be found in 'C1'.
    WARNING (CMI-2943): Parameter checks have been ignored because the valid value for parameter 'trise' could not be found in 'I0.C8<0>_turbo_m4.C1'.
    WARNING (CMI-2943): Parameter checks have been ignored because the valid value for parameter 'trise' could not be found in 'I0.C9<0>_turbo_m8.C1'.
    WARNING (CMI-2943): Parameter checks have been ignored because the valid value for parameter 'trise' could not be found in 'I0.C7<0>_turbo_m2.C1'.
    WARNING (CMI-2943): Parameter checks have been ignored because the valid value for parameter 'trise' could not be found in 'I0.R2.CM'.
        Further occurrences of this warning will be suppressed.

Convergence achieved in 19 iterations.
DC simulation time: CPU = 2.628 ms, elapsed = 2.62904 ms.

==================================
pss `tstab': time = (0 s -> 20 ms)
==================================

Output and IC/nodeset summary:
                 save   7       (current)
                 save   32      (voltage)

Important parameter values in tstab integration:
    start = 0 s
    outputstart = 0 s
    stop = 20 ms
    period = 20 ms
    maxperiods = 20
    step = 20 us
    maxstep = 800 us
    ic = all
    useprevic = no
    skipdc = no
    reltol = 1e-03
    abstol(V) = 1 uV
    abstol(I) = 1 pA
    temp = 27 C
    tnom = 27 C
    tempeffects = all
    method = traponly
    lteratio = 3.5
    relref = sigglobal
    cmin = 0 F
    gmin = 1 pS
    rabsshort = 1 mOhm

    pss: time = 517.5 us    (2.59 %), step = 261.4 us     (1.31 %)
    pss: time = 2.191 ms      (11 %), step = 800 us          (4 %)
    pss: time = 2.991 ms      (15 %), step = 800 us          (4 %)
    pss: time = 3.791 ms      (19 %), step = 800 us          (4 %)
    pss: time = 4.591 ms      (23 %), step = 800 us          (4 %)
    pss: time = 6.191 ms      (31 %), step = 800 us          (4 %)
    pss: time = 6.991 ms      (35 %), step = 800 us          (4 %)
    pss: time = 7.791 ms      (39 %), step = 800 us          (4 %)
    pss: time = 8.591 ms      (43 %), step = 800 us          (4 %)
    pss: time = 10.19 ms      (51 %), step = 800 us          (4 %)
    pss: time = 10.99 ms      (55 %), step = 800 us          (4 %)
    pss: time = 11.79 ms      (59 %), step = 800 us          (4 %)
    pss: time = 12.59 ms      (63 %), step = 800 us          (4 %)
    pss: time = 14.19 ms      (71 %), step = 800 us          (4 %)
    pss: time = 14.99 ms      (75 %), step = 800 us          (4 %)
    pss: time = 15.79 ms      (79 %), step = 800 us          (4 %)
    pss: time = 16.59 ms      (83 %), step = 800 us          (4 %)
    pss: time = 18.19 ms      (91 %), step = 800 us          (4 %)
    pss: time = 18.99 ms      (95 %), step = 800 us          (4 %)
    pss: time = 20 ms        (100 %), step = 504.3 us     (2.52 %)
Total time required for tstab analysis `pss': CPU = 6.071 ms, elapsed = 6.07085 ms.
Time accumulated: CPU = 7.94214 s, elapsed = 8.79496 s.
Peak resident memory used = 226 Mbytes.

Conv norm = 29.7, max dV(vout_filt) = -10.2058 mV, took 0 s.

Important parameter values in pss iteration:
    start = 0 s
    outputstart = 0 s
    stop = 20 ms
    period = 20 ms
    maxperiods = 20
    steadyratio = 10e-03
    step = 20 us
    maxstep = 100 us
    ic = all
    useprevic = no
    skipdc = no
    reltol = 100e-06
    abstol(V) = 1 uV
    abstol(I) = 1 pA
    temp = 27 C
    tnom = 27 C
    tempeffects = all
    errpreset = conservative
    method = gear2only
    lteratio = 10
    relref = sigglobal
    cmin = 0 F
    gmin = 1 pS
    rabsshort = 1 mOhm


Notice from spectre during periodic steady state analysis `pss', during Monte Carlo analysis `mc1'.
    12 warnings suppressed.


============================
`pss': time = (0 s -> 20 ms)
============================
    pss: time = 512.5 us    (2.56 %), step = 12.5 us     (62.5 m%)
    pss: time = 1.512 ms    (7.56 %), step = 12.5 us     (62.5 m%)
    pss: time = 2.512 ms    (12.6 %), step = 12.5 us     (62.5 m%)
    pss: time = 3.512 ms    (17.6 %), step = 12.5 us     (62.5 m%)
    pss: time = 4.5 ms      (22.5 %), step = 12.5 us     (62.5 m%)
    pss: time = 5.5 ms      (27.5 %), step = 12.5 us     (62.5 m%)
    pss: time = 6.5 ms      (32.5 %), step = 12.5 us     (62.5 m%)
    pss: time = 7.5 ms      (37.5 %), step = 12.5 us     (62.5 m%)
    pss: time = 8.5 ms      (42.5 %), step = 12.5 us     (62.5 m%)
    pss: time = 9.5 ms      (47.5 %), step = 12.5 us     (62.5 m%)
    pss: time = 10.5 ms     (52.5 %), step = 12.5 us     (62.5 m%)
    pss: time = 11.5 ms     (57.5 %), step = 12.5 us     (62.5 m%)
    pss: time = 12.5 ms     (62.5 %), step = 12.5 us     (62.5 m%)
    pss: time = 13.5 ms     (67.5 %), step = 12.5 us     (62.5 m%)
    pss: time = 14.5 ms     (72.5 %), step = 12.5 us     (62.5 m%)
    pss: time = 15.5 ms     (77.5 %), step = 12.5 us     (62.5 m%)
    pss: time = 16.5 ms     (82.5 %), step = 12.5 us     (62.5 m%)
    pss: time = 17.5 ms     (87.5 %), step = 12.5 us     (62.5 m%)
    pss: time = 18.5 ms     (92.5 %), step = 12.5 us     (62.5 m%)
    pss: time = 19.51 ms    (97.6 %), step = 12.5 us     (62.5 m%)
Conv norm = 259e-03, max dV(vout_filt) = 25.574 uV, took 380 ms.


Opening the PSF file ../psf/mc1_separate/063/pss.td.pss ...

Opening the PSF file ../psf/mc1_separate/063/pss.fd.pss ...

============================
`pss': time = (0 s -> 20 ms)
============================
    pss: time = 512.5 us    (2.56 %), step = 12.5 us     (62.5 m%)
    pss: time = 1.512 ms    (7.56 %), step = 12.5 us     (62.5 m%)
    pss: time = 2.512 ms    (12.6 %), step = 12.5 us     (62.5 m%)
    pss: time = 3.512 ms    (17.6 %), step = 12.5 us     (62.5 m%)
    pss: time = 4.5 ms      (22.5 %), step = 12.5 us     (62.5 m%)
    pss: time = 5.5 ms      (27.5 %), step = 12.5 us     (62.5 m%)
    pss: time = 6.5 ms      (32.5 %), step = 12.5 us     (62.5 m%)
    pss: time = 7.5 ms      (37.5 %), step = 12.5 us     (62.5 m%)
    pss: time = 8.5 ms      (42.5 %), step = 12.5 us     (62.5 m%)
    pss: time = 9.5 ms      (47.5 %), step = 12.5 us     (62.5 m%)
    pss: time = 10.5 ms     (52.5 %), step = 12.5 us     (62.5 m%)
    pss: time = 11.5 ms     (57.5 %), step = 12.5 us     (62.5 m%)
    pss: time = 12.5 ms     (62.5 %), step = 12.5 us     (62.5 m%)
    pss: time = 13.5 ms     (67.5 %), step = 12.5 us     (62.5 m%)
    pss: time = 14.5 ms     (72.5 %), step = 12.5 us     (62.5 m%)
    pss: time = 15.5 ms     (77.5 %), step = 12.5 us     (62.5 m%)
    pss: time = 16.5 ms     (82.5 %), step = 12.5 us     (62.5 m%)
    pss: time = 17.5 ms     (87.5 %), step = 12.5 us     (62.5 m%)
    pss: time = 18.5 ms     (92.5 %), step = 12.5 us     (62.5 m%)
    pss: time = 19.51 ms    (97.6 %), step = 12.5 us     (62.5 m%)

Maximum value achieved for any signal of each quantity: 
V: V(net2) = 3.3 V
I: I(V0:p) = 6.454 uA
Initial condition solution time: CPU = 2.676 ms, elapsed = 2.67887 ms.
pss: The steady-state solution was achieved in 2 iterations.
Number of accepted pss steps =             1600
Total time required for pss analysis `pss': CPU = 801.889 ms, elapsed = 821.475 ms, util. = 97.6%.
Time accumulated: CPU = 8.72665 s, elapsed = 9.5831 s.
Peak resident memory used = 226 Mbytes.

modelParameter: writing model parameter values to rawfile.

Opening the PSF file ../psf/mc1_separate/063/modelParameter.info ...
element: writing instance parameter values to rawfile.

Opening the PSF file ../psf/mc1_separate/063/element.info ...
outputParameter: writing output parameter values to rawfile.

Opening the PSF file ../psf/mc1_separate/063/outputParameter.info ...
designParamVals: writing netlist parameters to rawfile.

Opening the PSFASCII file ../psf/mc1_separate/063/designParamVals.info ...
primitives: writing primitives to rawfile.

Opening the PSFASCII file ../psf/mc1_separate/063/primitives.info.primitives ...
subckts: writing subcircuits to rawfile.

Opening the PSFASCII file ../psf/mc1_separate/063/subckts.info.subckts ...
    mc1: iteration = 63           (100 %), step = 1            (12.5 %)
Total time required for montecarlo analysis `mc1': CPU = 8.16858 s, elapsed = 8.47404 s, util. = 96.4%.
Time accumulated: CPU = 8.75184 s, elapsed = 9.62155 s.
Peak resident memory used = 226 Mbytes.

Licensing Information:
Lic Summary:
[13:18:26.374185] Cdslmd servers: lic08
[13:18:26.374219] Feature usage summary:
[13:18:26.374224] Virtuoso_Multi_mode_Simulation
[13:18:26.374225] Spectre_X_MMSIM_Lk


Aggregate audit (1:18:26 PM, Wed Apr 15, 2026):
Time used: CPU = 8.76 s, elapsed = 9.63 s, util. = 91%.
Time spent in licensing: elapsed = 195 ms.
Peak memory used = 226 Mbytes.
Simulation started at: 1:18:16 PM, Wed Apr 15, 2026, ended at: 1:18:26 PM, Wed Apr 15, 2026, with elapsed time (wall clock): 9.63 s.
spectre completes with 0 errors, 114 warnings, and 51 notices.
