
Spectre (R) Circuit Simulator
Version 24.1.0.288.isr5 64bit -- 3 Apr 2025
Copyright (C) 1989-2025 Cadence Design Systems, Inc. All rights reserved worldwide. Cadence and Spectre are registered trademarks of Cadence Design Systems, Inc. All others are the property of their respective holders.

Includes RSA BSAFE(R) Cryptographic or Security Protocol Software from RSA Security, Inc.

User: davidevi   Host: il2244vt26_davidevi   HostID: 11AC2C00   PID: 1049356
Memory  available: 3.0435 TB  physical: 3.2467 TB
Linux   : Rocky Linux release 8.10 (Green Obsidian)
CPU Type: Intel(R) Xeon(R) CPU E7-8857 v2 @ 3.00GHz
        Socket: Processors [Frequency]
        0:       0 [2600.0],  1 [2954.1],  2 [2920.4],  3 [1200.0],  4 [2915.8]
                 5 [1200.0],  6 [3500.0],  7 [2938.1],  8 [2700.0],  9 [3600.0]
                10 [2500.0], 11 [1400.0]
        1:      12 [1200.0], 13 [1200.0], 14 [1200.0], 15 [1200.0], 16 [3433.1]
                17 [3600.0], 18 [3600.0], 19 [1200.0], 20 [1200.0], 21 [3600.0]
                22 [1200.0], 23 [1200.0]
        2:      24 [1200.0], 25 [1200.0], 26 [1200.0], 27 [1200.0], 28 [1200.0]
                29 [1200.0], 30 [1200.0], 31 [2999.9], 32 [1200.0], 33 [2999.9]
                34 [1200.0], 35 [1200.0]
        3:      36 [2500.0], 37 [2999.9], 38 [2999.9], 39 [2999.9], 40 [3000.0]
                41 [3600.0], 42 [1200.0], 43 [1200.0], 44 [2999.9], 45 [1200.0]
                46 [1200.0], 47 [2999.9]
        
System load averages (1min, 5min, 15min) : 23.3 %, 18.6 %, 16.5 %
HPC is enabled


Simulating `input.scs' on il2244vt26_davidevi at 9:07:21 AM, Thur Apr 16, 2026 (process id: 1049356).
Current working directory: /home/davidevi/Desktop/myproject/Sim/VGA/VGA_1_tb/adexl/results/data/MonteCarlo.3/6/Linerity_MC/groupRunDataDir/netlist
Command line:
    /opt/tools/cadence/installs/SPECTRE241/tools/bin/spectre -64  \
        input.scs +escchars +log ../psf/spectre.out -format psfbin  \
        +rtsf -raw ../psf +aps +mt +lqtimeout 900 -maxw 5 -maxn 5  \
        +param /opt/pdk/ams/410/spectre/ams_range.lmts -env ade  \
        -ahdllibdir  \
        /home/davidevi/Desktop/myproject/Sim/VGA/VGA_1_tb/adexl/results/data/MonteCarlo.3/sharedData/Job472/ahdl/input.ahdlSimDB  \
        +logstatus  \
        +adespetkn=0001089D13A302B663E41FB550AF0DF415A679A322D5069144BF588C12F604E07EF416DC01A319B562BB63D345CB038245A351CD07CB06AB53C15F8E50E04F9240A979D15D9175FF34986BDD0AF002BA50FD7FD707E002A700AC1C8412F74CEA0EA979D121F874D3349879D118F874D334981031BE30D21B5D7800003648

Simulation Id: wQmKOEgYrxsYRnt1
Licensing Information:
[09:07:21.121754] Configured Lic search path (24.01-s002): 3000@lic08.ug.kth.se:29000@lic06.ug.kth.se

Licensing Information:
[09:07:21.345504] Periodic Lic check successful

Loading /opt/tools/cadence/installs/SPECTRE241/tools.lnx86/cmi/lib/64bit/5.0/libinfineon_sh.so ...
Loading /opt/tools/cadence/installs/SPECTRE241/tools.lnx86/cmi/lib/64bit/5.0/libphilips_I_sh.so ...
Loading /opt/tools/cadence/installs/SPECTRE241/tools.lnx86/cmi/lib/64bit/5.0/libphilips_sh.so ...
Loading /opt/tools/cadence/installs/SPECTRE241/tools.lnx86/cmi/lib/64bit/5.0/libsparam_sh.so ...
Loading /opt/tools/cadence/installs/SPECTRE241/tools.lnx86/cmi/lib/64bit/5.0/libstmodels_sh.so ...

Warning from spectre.
    WARNING (SPECTRE-691): This CPU processor does not support x86 advanced vector extensions instructions. This may affect math operations and slow down the simulation.

Reading file:  /home/davidevi/Desktop/myproject/Sim/VGA/VGA_1_tb/adexl/results/data/MonteCarlo.3/6/Linerity_MC/groupRunDataDir/netlist/input.scs
Reading file:  /opt/pdk/ams/410/spectre/ams_range.lmts

Warning from spectre during read of parameter soft limits file `/opt/pdk/ams/410/spectre/ams_range.lmts', during circuit read-in.
    WARNING (SPECTRE-8360): line 1511: `ac' is an undefined primitive device.
    WARNING (SPECTRE-8360): line 1512: `ac' is an undefined primitive device.
    WARNING (SPECTRE-8360): line 1513: `ac' is an undefined primitive device.
    WARNING (SPECTRE-8360): line 1514: `ac' is an undefined primitive device.
    WARNING (SPECTRE-8360): line 1515: `ac' is an undefined primitive device.
        Further occurrences of this warning will be suppressed.

Reading file:  /opt/tools/cadence/installs/SPECTRE241/tools.lnx86/spectre/etc/configs/spectre.cfg
Reading file:  /opt/pdk/ams/410/spectre/c35/soac/soac.scs
Reading file:  /opt/pdk/ams/410/spectre/c35/soac/processOption.scs
Reading file:  /opt/pdk/ams/410/spectre/c35/soac/process.scs
Reading file:  /opt/pdk/ams/410/spectre/c35/soac/soac.va

Warning from spectre during AHDL read-in.
    WARNING (VACOMP-2435): The environment variable CDS_AHDLCMI_ENABLE is no longer supported. Therefore, the simulator will use the default compiled C code flow.

Reading link:  /opt/tools/cadence/installs/SPECTRE241/tools.lnx86/spectre/etc/ahdl/constants.h
Reading file:  /opt/tools/cadence/installs/SPECTRE241/tools.lnx86/spectre/etc/ahdl/constants.vams
Reading link:  /opt/tools/cadence/installs/SPECTRE241/tools.lnx86/spectre/etc/ahdl/discipline.h
Reading file:  /opt/tools/cadence/installs/SPECTRE241/tools.lnx86/spectre/etc/ahdl/disciplines.vams
Reading file:  /opt/pdk/ams/410/spectre/c35/processOption/C35B4C3.scs
Reading file:  /opt/pdk/ams/410/spectre/c35/soac/cmos53.scs
Reading file:  /opt/pdk/ams/410/spectre/c35/soac/res.scs
Reading file:  /opt/pdk/ams/410/spectre/c35/soac/cap.scs
Reading file:  /opt/pdk/ams/410/spectre/c35/soac/bip.scs
Reading file:  /opt/pdk/ams/410/spectre/c35/soac/ind.scs
Reading file:  /opt/pdk/ams/410/spectre/c35/soac/esddiode.scs
Time for NDB Parsing: CPU = 154.092 ms, elapsed = 299.88 ms.
Time accumulated: CPU = 359.407 ms, elapsed = 299.883 ms.
Peak resident memory used = 175 Mbytes.

Existing shared object for module modn_ahdl is up to date.
Installed compiled interface for modn_ahdl.
Existing shared object for module modp_ahdl is up to date.
Installed compiled interface for modp_ahdl.
Existing shared object for module cpoly_ahdl is up to date.
Installed compiled interface for cpoly_ahdl.
Existing shared object for module rpolyh_ahdl is up to date.
Installed compiled interface for rpolyh_ahdl.
Existing shared object for module bsource_19b458 is up to date.
Installed compiled interface for bsource_19b458.
Time for Elaboration: CPU = 55.034 ms, elapsed = 56.839 ms.
Time accumulated: CPU = 414.573 ms, elapsed = 356.853 ms.
Peak resident memory used = 188 Mbytes.


Notice from spectre during hierarchy flattening.
    The value 'psf' specified for the 'checklimitdest' option will no longer be supported in future releases. Use 'spectre -h' to see other recommended values for the 'checklimitdest' option.


*****************************************************************************************
* 
* INFO: AMS_processOption = C35B4C3
* 
* INFO: Valid Modules  PIP VG5 HIRES
* 
*****************************************************************************************


Time for EDB Visiting: CPU = 7.719 ms, elapsed = 7.71999 ms.
Time accumulated: CPU = 422.424 ms, elapsed = 364.703 ms.
Peak resident memory used = 191 Mbytes.

Loading /opt/tools/cadence/installs/SPECTRE241/tools.lnx86/mdl/lib/64bit/libSpectreEH_sh.so ...

Warning from spectre during initial setup.
    WARNING (SPECTRE-16460): SOAC_cvarm_vspsub:Specified subcircuit master `cvarm' was not found.
    WARNING (SPECTRE-16462): SOAC_cvarm_vspsub:Error in specification of subcircuit master. Assert is ignored.
    WARNING (SPECTRE-16460): SOAC_cvarm_vbs:Specified subcircuit master `cvarm' was not found.
    WARNING (SPECTRE-16462): SOAC_cvarm_vbs:Error in specification of subcircuit master. Assert is ignored.
    WARNING (SPECTRE-16460): SOAC_cvarm_vgb:Specified subcircuit master `cvarm' was not found.
    WARNING (SPECTRE-16462): SOAC_cvarm_vgb:Error in specification of subcircuit master. Assert is ignored.
    WARNING (SPECTRE-16460): SOAC_cvart_vspsub:Specified subcircuit master `cvart' was not found.
    WARNING (SPECTRE-16462): SOAC_cvart_vspsub:Error in specification of subcircuit master. Assert is ignored.
    WARNING (SPECTRE-16460): SOAC_cvart_vbs:Specified subcircuit master `cvart' was not found.
        Further occurrences of this warning will be suppressed.
    WARNING (SPECTRE-16462): SOAC_cvart_vbs:Error in specification of subcircuit master. Assert is ignored.
        Further occurrences of this warning will be suppressed.
Notice from spectre during topology check.
    Only one connection to the following 54 nodes:
        I0.MN6.psub!
        I0.MN5.psub!
        I0.MN4.psub!
        I0.MN3.psub!
        I0.MN2.psub!
        Further occurrences of this notice will be suppressed.
Notice from spectre during initial setup.
    Multithreading is disabled due to the size of the design being too small.


Netlist title:
        // Point Netlist Generated on: Apr 16 09:07:21 2026


Global user options:
         psfversion = 1.4.0
            vabstol = 1e-06
            iabstol = 1e-12
               temp = -40
           homotopy = 5
              limit = delta
         compatible = spice2
               gmin = 1e-12
             rforce = 1
           maxnotes = 5
           maxwarns = 5
             digits = 5
               cols = 80
             pivrel = 0.001
           sensfile = ../psf/sens.output
     checklimitdest = psf
     enable_pre_ver = yes
      ignorezerovar = yes
               save = allpub
             reltol = 0.0001
               tnom = 27
             scalem = 1
              scale = 1

Scoped user options:

Circuit inventory:
              nodes 88
            bsim3v3 35    
     bsource_19b458 2     
          capacitor 38    
         cpoly_ahdl 17    
            isource 1     
          modn_ahdl 19    
          modp_ahdl 16    
           resistor 1     
        rpolyh_ahdl 2     
            vsource 8     

Analysis and control statement inventory:
                 dc 1     
               info 8     
         montecarlo 1     
               tran 1     

Output statements:
             .probe 0     
           .measure 0     
               save 0     

Design checks inventory:
          paramtest 55    
             assert 175   


Notice from spectre during initial setup.
    APS enabled.
    1 notice suppressed.
    72 warnings suppressed.

Time for parsing: CPU = 17.197 ms, elapsed = 539.434 ms.
Time accumulated: CPU = 439.714 ms, elapsed = 904.229 ms.
Peak resident memory used = 198 Mbytes.

~~~~~~~~~~~~~~~~~~~~~~
Pre-Simulation Summary
~~~~~~~~~~~~~~~~~~~~~~
   -   (APS) Multi-threading. The recommended number of threads is 1, consider adding +mt=1 on command line.
~~~~~~~~~~~~~~~~~~~~~~

*************************************************
Monte Carlo Analysis `mc1': iteration = (1 -> 50)
*************************************************
Important parameter values:
    seed = 12345
    sampling = lds
    variations = all
    firstrun = 1
    numruns = 50
    nullmfactorcorrelation = no
    donominal = yes
    method = standard

**** Performing nominal run for `mc1'

******************
DC Analysis `dcOp'
******************

Notice from spectre during DC analysis `dcOp', during Monte Carlo analysis `mc1'.
    No checklimit analysis defined for asserts. A default checklimit analysis 'SpectreChecklimitAnal' has been created with all asserts enabled.


Opening the PSF file ../psf/nom/dcOp.dc ...
Important parameter values:
    reltol = 100e-06
    abstol(V) = 1 uV
    abstol(I) = 1 pA
    temp = -40 C
    tnom = 27 C
    tempeffects = all
    gmindc = 1 pS
    rabsshort = 1 mOhm

Notice from spectre during DC analysis `dcOp', during Monte Carlo analysis `mc1'.
    GminDC = 1 pS is large enough to noticeably affect the DC solution.
        dV(vout) = -223.745 uV
        Use the `gmin_check' option to eliminate or expand this report.
    Bad pivoting is found during DC analysis. Option dc_pivot_check=yes is recommended for possible improvement of convergence.


Maximum value achieved for any signal of each quantity: 
V: V(S<0>) = 3.3 V
I: I(V0:p) = 6.453 uA
Maximum value of each quantity, excluding Verilog-A modules or dangling current sources:
V: V(vout_filt) = 1.6 V
I: I(V0:p) = 6.453 uA

Warning from spectre during check, during DC analysis `dcOp', during Monte Carlo analysis `mc1'.
    WARNING (CMI-2943): Parameter checks have been ignored because the valid value for parameter 'trise' could not be found in 'C1'.
    WARNING (CMI-2943): Parameter checks have been ignored because the valid value for parameter 'trise' could not be found in 'I0.R2.CM'.
    WARNING (CMI-2943): Parameter checks have been ignored because the valid value for parameter 'trise' could not be found in 'I0.R2.CS1'.
    WARNING (CMI-2943): Parameter checks have been ignored because the valid value for parameter 'trise' could not be found in 'I0.R2.CS0'.
    WARNING (CMI-2943): Parameter checks have been ignored because the valid value for parameter 'trise' could not be found in 'I0.C8<3>.C1'.
        Further occurrences of this warning will be suppressed.

Convergence achieved in 17 iterations.
DC simulation time: CPU = 77.734 ms, elapsed = 81.5899 ms.
Total time required for dc analysis `dcOp': CPU = 77.867 ms, elapsed = 81.7211 ms, util. = 95.3%.
Time accumulated: CPU = 541.609 ms, elapsed = 1.01119 s.
Peak resident memory used = 206 Mbytes.


Notice from spectre during Monte Carlo analysis `mc1'.
    34 warnings suppressed.

dcOpInfo: writing operating point information to rawfile.

Opening the PSF file ../psf/nom/dcOpInfo.info ...

************************************************
Transient Analysis `tran': time = (0 s -> 40 ms)
************************************************

Notice from spectre during IC analysis, during transient analysis `tran', during Monte Carlo analysis `mc1'.
    GminDC = 1 pS is large enough to noticeably affect the DC solution.
        dV(vout) = -223.746 uV
        Use the `gmin_check' option to eliminate or expand this report.
    Bad pivoting is found during DC analysis. Option dc_pivot_check=yes is recommended for possible improvement of convergence.
Warning from spectre during check, during IC analysis, during transient analysis `tran', during Monte Carlo analysis `mc1'.
    WARNING (CMI-2943): Parameter checks have been ignored because the valid value for parameter 'trise' could not be found in 'C1'.
    WARNING (CMI-2943): Parameter checks have been ignored because the valid value for parameter 'trise' could not be found in 'I0.R2.CM'.
    WARNING (CMI-2943): Parameter checks have been ignored because the valid value for parameter 'trise' could not be found in 'I0.R2.CS1'.
    WARNING (CMI-2943): Parameter checks have been ignored because the valid value for parameter 'trise' could not be found in 'I0.R2.CS0'.
    WARNING (CMI-2943): Parameter checks have been ignored because the valid value for parameter 'trise' could not be found in 'I0.C8<3>.C1'.
        Further occurrences of this warning will be suppressed.

Convergence achieved in 2 iterations.
DC simulation time: CPU = 1.159 ms, elapsed = 1.15991 ms.

Opening the PSF file ../psf/nom/tran.tran.tran ...
Important parameter values:
    start = 0 s
    outputstart = 0 s
    stop = 40 ms
    step = 40 us
    maxstep = 400 us
    ic = all
    useprevic = no
    skipdc = no
    reltol = 10e-06
    abstol(V) = 1 uV
    abstol(I) = 1 pA
    temp = -40 C
    tnom = 27 C
    tempeffects = all
    errpreset = conservative
    method = gear2only
    lteratio = 10
    relref = alllocal
    cmin = 0 F
    gmin = 1 pS
    rabsshort = 1 mOhm


Notice from spectre during transient analysis `tran', during Monte Carlo analysis `mc1'.
    Multithreading is disabled due to the size of the design being too small.


Output and IC/nodeset summary:
                 save   8       (current)
                 save   87      (voltage)

    tran: time = 1.032 ms    (2.58 %), step = 47.58 us     (119 m%)
    tran: time = 3.045 ms    (7.61 %), step = 46.73 us     (117 m%)
    tran: time = 5.012 ms    (12.5 %), step = 49.21 us     (123 m%)
    tran: time = 7.025 ms    (17.6 %), step = 48.03 us     (120 m%)
    tran: time = 9.039 ms    (22.6 %), step = 47.09 us     (118 m%)
    tran: time = 11.01 ms    (27.5 %), step = 49.81 us     (125 m%)
    tran: time = 13.02 ms    (32.5 %), step = 48.54 us     (121 m%)
    tran: time = 15.03 ms    (37.6 %), step = 47.48 us     (119 m%)
    tran: time = 17.05 ms    (42.6 %), step = 46.65 us     (117 m%)
    tran: time = 19.01 ms    (47.5 %), step = 49.07 us     (123 m%)
    tran: time = 21.03 ms    (52.6 %), step = 47.92 us     (120 m%)
    tran: time = 23.04 ms    (57.6 %), step = 47 us        (117 m%)
    tran: time = 25.01 ms    (62.5 %), step = 49.66 us     (124 m%)
    tran: time = 27.02 ms    (67.6 %), step = 48.41 us     (121 m%)
    tran: time = 29.03 ms    (72.6 %), step = 47.37 us     (118 m%)
    tran: time = 31 ms       (77.5 %), step = 50 us        (125 m%)
    tran: time = 33.01 ms    (82.5 %), step = 48.93 us     (122 m%)
    tran: time = 35.03 ms    (87.6 %), step = 47.79 us     (119 m%)
    tran: time = 37.04 ms    (92.6 %), step = 46.9 us      (117 m%)
    tran: time = 39.01 ms    (97.5 %), step = 49.49 us     (124 m%)
Number of accepted tran steps =             851

Maximum value achieved for any signal of each quantity: 
V: V(S<0>) = 3.3 V
I: I(V0:p) = 6.454 uA
Maximum value of each quantity, excluding Verilog-A modules or dangling current sources:
V: V(vout_filt) = 1.614 V
I: I(V0:p) = 6.454 uA

~~~~~~~~~~~~~~~~~~~~~~~~~~~~~~~~~
Post-Transient Simulation Summary
~~~~~~~~~~~~~~~~~~~~~~~~~~~~~~~~~
   -   To further speed up simulation, consider
          add ++aps on command line
   -   Non-default settings that could significantly slow down simulation
          errpreset = conservative, default moderate
          reltol = 10e-06, default 100e-06 (conservative)
~~~~~~~~~~~~~~~~~~~~~~~~~~~~~~~~~


During simulation, the CPU load for active processors is :
         0 (21.6 %)      1 (20.1 %)      2 (86.5 %)      3 (3.6 %)
         4 (2.9 %)       5 (8.6 %)       6 (2.9 %)       7 (2.9 %)
         8 (44.9 %)      9 (2.9 %)      10 (42.3 %)     11 (13.5 %)
        12 (4.3 %)      13 (5.0 %)      14 (2.8 %)      15 (1.4 %)
        16 (78.2 %)     17 (2.9 %)      18 (44.5 %)     19 (5.0 %)
        20 (20.4 %)     21 (24.8 %)     22 (2.1 %)      23 (31.2 %)
        25 (2.1 %)      26 (2.8 %)      28 (1.4 %)      29 (2.1 %)
        30 (1.4 %)      31 (100.0 %)    32 (3.5 %)      33 (97.9 %)
        34 (2.1 %)      35 (1.4 %)      36 (10.9 %)     37 (3.6 %)
        38 (5.1 %)      39 (100.0 %)    40 (50.4 %)     41 (5.1 %)
        42 (12.2 %)     43 (6.3 %)      44 (50.7 %)     45 (8.6 %)
        46 (2.9 %)      47 (31.4 %)     
        Total: 979.0%
Initial condition solution time: CPU = 1.24 ms, elapsed = 1.24192 ms.
Intrinsic tran analysis time:    CPU = 452.791 ms, elapsed = 454.089 ms.
Total time required for tran analysis `tran': CPU = 456.153 ms, elapsed = 458 ms, util. = 99.6%.
Time accumulated: CPU = 1.0055 s, elapsed = 1.48028 s.
Peak resident memory used = 209 Mbytes.


Notice from spectre during transient analysis `tran', during Monte Carlo analysis `mc1'.
    34 warnings suppressed.

finalTimeOP: writing operating point information to rawfile.

Opening the PSF file ../psf/nom/finalTimeOP.info ...
modelParameter: writing model parameter values to rawfile.

Opening the PSF file ../psf/nom/modelParameter.info ...
element: writing instance parameter values to rawfile.

Opening the PSF file ../psf/nom/element.info ...
outputParameter: writing output parameter values to rawfile.

Opening the PSF file ../psf/nom/outputParameter.info ...
designParamVals: writing netlist parameters to rawfile.

Opening the PSFASCII file ../psf/nom/designParamVals.info ...
primitives: writing primitives to rawfile.

Opening the PSFASCII file ../psf/nom/primitives.info.primitives ...
subckts: writing subcircuits to rawfile.

Opening the PSFASCII file ../psf/nom/subckts.info.subckts ...
Opening iteration number and data-directory mapping file:  /home/davidevi/Desktop/myproject/Sim/VGA/VGA_1_tb/adexl/results/data/MonteCarlo.3/6/Linerity_MC/groupRunDataDir/netlist/../psf/mc1.mapping

Statistical parameters:
    Defined process parameters: 629
    Defined mismatch parameters (subckt based): 86
    Non-referenced mismatch parameters: 80
    Number of random variables: 718
    Gaussian truncation for process parameters: 4.00 sigma
    Gaussian truncation for mismatch parameters: 4.00 sigma


Opening the PSF file ../psf/mc1_dcOp.montecarlo ...

Opening the PSF file ../psf/mc1_dcOpInfo.montecarlo ...

Opening the PSF file ../psf/mc1_tran.montecarlo ...

Opening the PSF file ../psf/mc1_finalTimeOP.montecarlo ...

Opening the PSF file ../psf/mc1_modelParameter.montecarlo ...

Opening the PSF file ../psf/mc1_element.montecarlo ...

Opening the PSF file ../psf/mc1_outputParameter.montecarlo ...

Opening the PSF file ../psf/mc1_designParamVals.montecarlo ...

Opening the PSF file ../psf/mc1_primitives.montecarlo ...

Opening the PSF file ../psf/mc1_subckts.montecarlo ...

**** Performing monte carlo loop for `mc1'

1   0.00% 

*****************************************************************************************
* 
* INFO: AMS_processOption = C35B4C3
* 
* INFO: Valid Modules  PIP VG5 HIRES
* 
*****************************************************************************************


******************
DC Analysis `dcOp'
******************

Opening the PSF file ../psf/mc1_separate/001/dcOp.dc ...
Important parameter values:
    reltol = 100e-06
    abstol(V) = 1 uV
    abstol(I) = 1 pA
    temp = -40 C
    tnom = 27 C
    tempeffects = all
    gmindc = 1 pS
    rabsshort = 1 mOhm

Notice from spectre at iteration = 1 during DC analysis `dcOp', during Monte Carlo analysis `mc1'.
    GminDC = 1 pS is large enough to noticeably affect the DC solution.
        dV(vout) = -223.793 uV
        Use the `gmin_check' option to eliminate or expand this report.
    Bad pivoting is found during DC analysis. Option dc_pivot_check=yes is recommended for possible improvement of convergence.


Maximum value achieved for any signal of each quantity: 
V: V(S<0>) = 3.3 V
I: I(V0:p) = 6.18 uA
Maximum value of each quantity, excluding Verilog-A modules or dangling current sources:
V: V(vout_filt) = 1.6 V
I: I(V0:p) = 6.18 uA

Warning from spectre at iteration = 1 during check, during DC analysis `dcOp', during Monte Carlo analysis `mc1'.
    WARNING (CMI-2943): Parameter checks have been ignored because the valid value for parameter 'trise' could not be found in 'C1'.
    WARNING (CMI-2943): Parameter checks have been ignored because the valid value for parameter 'trise' could not be found in 'I0.R2.CM'.
    WARNING (CMI-2943): Parameter checks have been ignored because the valid value for parameter 'trise' could not be found in 'I0.R2.CS1'.
    WARNING (CMI-2943): Parameter checks have been ignored because the valid value for parameter 'trise' could not be found in 'I0.R2.CS0'.
    WARNING (CMI-2943): Parameter checks have been ignored because the valid value for parameter 'trise' could not be found in 'I0.C8<3>.C1'.
        Further occurrences of this warning will be suppressed.

Convergence achieved in 17 iterations.
DC simulation time: CPU = 5.608 ms, elapsed = 6.85215 ms.
Total time required for dc analysis `dcOp': CPU = 6.198 ms, elapsed = 7.44009 ms, util. = 83.3%.
Time accumulated: CPU = 1.09258 s, elapsed = 1.58228 s.
Peak resident memory used = 212 Mbytes.


Notice from spectre at iteration = 1 during Monte Carlo analysis `mc1'.
    34 warnings suppressed.

dcOpInfo: writing operating point information to rawfile.

Opening the PSF file ../psf/mc1_separate/001/dcOpInfo.info ...

************************************************
Transient Analysis `tran': time = (0 s -> 40 ms)
************************************************

Opening the PSF file ../psf/mc1_separate/001/tran.tran.tran ...

Notice from spectre at iteration = 1 during IC analysis, during transient analysis `tran', during Monte Carlo analysis `mc1'.
    GminDC = 1 pS is large enough to noticeably affect the DC solution.
        dV(vout) = -223.793 uV
        Use the `gmin_check' option to eliminate or expand this report.
    Bad pivoting is found during DC analysis. Option dc_pivot_check=yes is recommended for possible improvement of convergence.
Warning from spectre at iteration = 1 during check, during IC analysis, during transient analysis `tran', during Monte Carlo analysis `mc1'.
    WARNING (CMI-2943): Parameter checks have been ignored because the valid value for parameter 'trise' could not be found in 'C1'.
    WARNING (CMI-2943): Parameter checks have been ignored because the valid value for parameter 'trise' could not be found in 'I0.R2.CM'.
    WARNING (CMI-2943): Parameter checks have been ignored because the valid value for parameter 'trise' could not be found in 'I0.R2.CS1'.
    WARNING (CMI-2943): Parameter checks have been ignored because the valid value for parameter 'trise' could not be found in 'I0.R2.CS0'.
    WARNING (CMI-2943): Parameter checks have been ignored because the valid value for parameter 'trise' could not be found in 'I0.C8<3>.C1'.
        Further occurrences of this warning will be suppressed.

Convergence achieved in 17 iterations.
DC simulation time: CPU = 2.639 ms, elapsed = 2.64287 ms.
Important parameter values:
    start = 0 s
    outputstart = 0 s
    stop = 40 ms
    step = 40 us
    maxstep = 400 us
    ic = all
    useprevic = no
    skipdc = no
    reltol = 10e-06
    abstol(V) = 1 uV
    abstol(I) = 1 pA
    temp = -40 C
    tnom = 27 C
    tempeffects = all
    errpreset = conservative
    method = gear2only
    lteratio = 10
    relref = alllocal
    cmin = 0 F
    gmin = 1 pS
    rabsshort = 1 mOhm


Notice from spectre at iteration = 1 during transient analysis `tran', during Monte Carlo analysis `mc1'.
    Multithreading is disabled due to the size of the design being too small.


Output and IC/nodeset summary:
                 save   8       (current)
                 save   87      (voltage)

    tran: time = 1.012 ms    (2.53 %), step = 49.24 us     (123 m%)
    tran: time = 3.025 ms    (7.56 %), step = 48.06 us     (120 m%)
    tran: time = 5.039 ms    (12.6 %), step = 47.1 us      (118 m%)
    tran: time = 7.006 ms    (17.5 %), step = 49.84 us     (125 m%)
    tran: time = 9.019 ms    (22.5 %), step = 48.55 us     (121 m%)
    tran: time = 11.03 ms    (27.6 %), step = 47.48 us     (119 m%)
    tran: time = 13.05 ms    (32.6 %), step = 46.66 us     (117 m%)
    tran: time = 15.01 ms    (37.5 %), step = 49.07 us     (123 m%)
    tran: time = 17.03 ms    (42.6 %), step = 47.91 us     (120 m%)
    tran: time = 19.04 ms    (47.6 %), step = 46.99 us     (117 m%)
    tran: time = 21.01 ms    (52.5 %), step = 49.63 us     (124 m%)
    tran: time = 23.02 ms    (57.6 %), step = 48.38 us     (121 m%)
    tran: time = 25.03 ms    (62.6 %), step = 47.35 us     (118 m%)
    tran: time = 27 ms       (67.5 %), step = 50 us        (125 m%)
    tran: time = 29.02 ms    (72.5 %), step = 48.89 us     (122 m%)
    tran: time = 31.03 ms    (77.6 %), step = 47.75 us     (119 m%)
    tran: time = 33.04 ms    (82.6 %), step = 46.87 us     (117 m%)
    tran: time = 35.01 ms    (87.5 %), step = 49.43 us     (124 m%)
    tran: time = 37.02 ms    (92.6 %), step = 48.21 us     (121 m%)
    tran: time = 39.04 ms    (97.6 %), step = 47.22 us     (118 m%)
Number of accepted tran steps =             851

Maximum value achieved for any signal of each quantity: 
V: V(S<0>) = 3.3 V
I: I(V0:p) = 6.18 uA
Maximum value of each quantity, excluding Verilog-A modules or dangling current sources:
V: V(vout_filt) = 1.614 V
I: I(V0:p) = 6.18 uA

~~~~~~~~~~~~~~~~~~~~~~~~~~~~~~~~~
Post-Transient Simulation Summary
~~~~~~~~~~~~~~~~~~~~~~~~~~~~~~~~~
   -   To further speed up simulation, consider
          add ++aps on command line
   -   Non-default settings that could significantly slow down simulation
          errpreset = conservative, default moderate
          reltol = 10e-06, default 100e-06 (conservative)
~~~~~~~~~~~~~~~~~~~~~~~~~~~~~~~~~


During simulation, the CPU load for active processors is :
         0 (21.0 %)      1 (15.3 %)      2 (90.4 %)      3 (3.6 %)
         4 (2.6 %)       5 (6.6 %)       6 (3.1 %)       7 (3.1 %)
         8 (59.9 %)      9 (2.6 %)      10 (30.7 %)     11 (10.6 %)
        12 (8.0 %)      13 (4.1 %)      14 (3.6 %)      15 (12.3 %)
        16 (57.1 %)     17 (6.6 %)      18 (60.2 %)     19 (4.1 %)
        20 (15.2 %)     21 (31.3 %)     22 (2.6 %)      23 (23.9 %)
        24 (1.5 %)      25 (2.5 %)      26 (2.5 %)      27 (3.1 %)
        28 (1.5 %)      29 (2.0 %)      30 (1.5 %)      31 (100.0 %)
        32 (3.0 %)      33 (90.5 %)     34 (3.5 %)      35 (1.5 %)
        36 (9.7 %)      37 (5.6 %)      38 (5.1 %)      39 (100.0 %)
        40 (52.5 %)     41 (4.7 %)      42 (14.4 %)     43 (6.1 %)
        44 (36.7 %)     45 (12.2 %)     46 (2.6 %)      47 (23.0 %)
        Total: 963.9%
Initial condition solution time: CPU = 2.717 ms, elapsed = 2.71893 ms.
Intrinsic tran analysis time:    CPU = 456.503 ms, elapsed = 457.726 ms.
Total time required for tran analysis `tran': CPU = 461.127 ms, elapsed = 462.844 ms, util. = 99.6%.
Time accumulated: CPU = 1.56041 s, elapsed = 2.05414 s.
Peak resident memory used = 213 Mbytes.


Notice from spectre during transient analysis `tran', during Monte Carlo analysis `mc1'.
    34 warnings suppressed.

finalTimeOP: writing operating point information to rawfile.

Opening the PSF file ../psf/mc1_separate/001/finalTimeOP.info ...
modelParameter: writing model parameter values to rawfile.

Opening the PSF file ../psf/mc1_separate/001/modelParameter.info ...
element: writing instance parameter values to rawfile.

Opening the PSF file ../psf/mc1_separate/001/element.info ...
outputParameter: writing output parameter values to rawfile.

Opening the PSF file ../psf/mc1_separate/001/outputParameter.info ...
designParamVals: writing netlist parameters to rawfile.

Opening the PSFASCII file ../psf/mc1_separate/001/designParamVals.info ...
primitives: writing primitives to rawfile.

Opening the PSFASCII file ../psf/mc1_separate/001/primitives.info.primitives ...
subckts: writing subcircuits to rawfile.

Opening the PSFASCII file ../psf/mc1_separate/001/subckts.info.subckts ...
2   2.04% 

*****************************************************************************************
* 
* INFO: AMS_processOption = C35B4C3
* 
* INFO: Valid Modules  PIP VG5 HIRES
* 
*****************************************************************************************


******************
DC Analysis `dcOp'
******************

Opening the PSF file ../psf/mc1_separate/002/dcOp.dc ...
Important parameter values:
    reltol = 100e-06
    abstol(V) = 1 uV
    abstol(I) = 1 pA
    temp = -40 C
    tnom = 27 C
    tempeffects = all
    gmindc = 1 pS
    rabsshort = 1 mOhm

Notice from spectre during DC analysis `dcOp', during Monte Carlo analysis `mc1'.
    GminDC = 1 pS is large enough to noticeably affect the DC solution.
        dV(vout) = -223.638 uV
        Use the `gmin_check' option to eliminate or expand this report.
    Bad pivoting is found during DC analysis. Option dc_pivot_check=yes is recommended for possible improvement of convergence.


Maximum value achieved for any signal of each quantity: 
V: V(S<0>) = 3.3 V
I: I(V0:p) = 6.487 uA
Maximum value of each quantity, excluding Verilog-A modules or dangling current sources:
V: V(vout_filt) = 1.6 V
I: I(V0:p) = 6.487 uA

Warning from spectre during check, during DC analysis `dcOp', during Monte Carlo analysis `mc1'.
    WARNING (CMI-2943): Parameter checks have been ignored because the valid value for parameter 'trise' could not be found in 'C1'.
    WARNING (CMI-2943): Parameter checks have been ignored because the valid value for parameter 'trise' could not be found in 'I0.R2.CM'.
    WARNING (CMI-2943): Parameter checks have been ignored because the valid value for parameter 'trise' could not be found in 'I0.R2.CS1'.
    WARNING (CMI-2943): Parameter checks have been ignored because the valid value for parameter 'trise' could not be found in 'I0.R2.CS0'.
    WARNING (CMI-2943): Parameter checks have been ignored because the valid value for parameter 'trise' could not be found in 'I0.C8<3>.C1'.
        Further occurrences of this warning will be suppressed.

Convergence achieved in 17 iterations.
DC simulation time: CPU = 4.754 ms, elapsed = 5.7199 ms.
Total time required for dc analysis `dcOp': CPU = 5.186 ms, elapsed = 6.15096 ms, util. = 84.3%.
Time accumulated: CPU = 1.59923 s, elapsed = 2.10236 s.
Peak resident memory used = 213 Mbytes.


Notice from spectre during Monte Carlo analysis `mc1'.
    34 warnings suppressed.

dcOpInfo: writing operating point information to rawfile.

Opening the PSF file ../psf/mc1_separate/002/dcOpInfo.info ...

************************************************
Transient Analysis `tran': time = (0 s -> 40 ms)
************************************************

Opening the PSF file ../psf/mc1_separate/002/tran.tran.tran ...

Notice from spectre during IC analysis, during transient analysis `tran', during Monte Carlo analysis `mc1'.
    GminDC = 1 pS is large enough to noticeably affect the DC solution.
        dV(vout) = -223.638 uV
        Use the `gmin_check' option to eliminate or expand this report.
    Bad pivoting is found during DC analysis. Option dc_pivot_check=yes is recommended for possible improvement of convergence.
Warning from spectre during check, during IC analysis, during transient analysis `tran', during Monte Carlo analysis `mc1'.
    WARNING (CMI-2943): Parameter checks have been ignored because the valid value for parameter 'trise' could not be found in 'C1'.
    WARNING (CMI-2943): Parameter checks have been ignored because the valid value for parameter 'trise' could not be found in 'I0.R2.CM'.
    WARNING (CMI-2943): Parameter checks have been ignored because the valid value for parameter 'trise' could not be found in 'I0.R2.CS1'.
    WARNING (CMI-2943): Parameter checks have been ignored because the valid value for parameter 'trise' could not be found in 'I0.R2.CS0'.
    WARNING (CMI-2943): Parameter checks have been ignored because the valid value for parameter 'trise' could not be found in 'I0.C8<3>.C1'.
        Further occurrences of this warning will be suppressed.

Convergence achieved in 17 iterations.
DC simulation time: CPU = 2.287 ms, elapsed = 2.2881 ms.
Important parameter values:
    start = 0 s
    outputstart = 0 s
    stop = 40 ms
    step = 40 us
    maxstep = 400 us
    ic = all
    useprevic = no
    skipdc = no
    reltol = 10e-06
    abstol(V) = 1 uV
    abstol(I) = 1 pA
    temp = -40 C
    tnom = 27 C
    tempeffects = all
    errpreset = conservative
    method = gear2only
    lteratio = 10
    relref = alllocal
    cmin = 0 F
    gmin = 1 pS
    rabsshort = 1 mOhm


Notice from spectre during transient analysis `tran', during Monte Carlo analysis `mc1'.
    Multithreading is disabled due to the size of the design being too small.


Output and IC/nodeset summary:
                 save   8       (current)
                 save   87      (voltage)

    tran: time = 1.007 ms    (2.52 %), step = 49.76 us     (124 m%)
    tran: time = 3.02 ms     (7.55 %), step = 48.49 us     (121 m%)
    tran: time = 5.034 ms    (12.6 %), step = 47.44 us     (119 m%)
    tran: time = 7.001 ms    (17.5 %), step = 50 us        (125 m%)
    tran: time = 9.014 ms    (22.5 %), step = 49.02 us     (123 m%)
    tran: time = 11.03 ms    (27.6 %), step = 47.86 us     (120 m%)
    tran: time = 13.04 ms    (32.6 %), step = 46.95 us     (117 m%)
    tran: time = 15.01 ms    (37.5 %), step = 49.57 us     (124 m%)
    tran: time = 17.02 ms    (42.6 %), step = 48.33 us     (121 m%)
    tran: time = 19.04 ms    (47.6 %), step = 47.31 us     (118 m%)
    tran: time = 21 ms       (52.5 %), step = 50 us        (125 m%)
    tran: time = 23.02 ms    (57.5 %), step = 48.84 us     (122 m%)
    tran: time = 25.03 ms    (62.6 %), step = 47.72 us     (119 m%)
    tran: time = 27.04 ms    (67.6 %), step = 46.84 us     (117 m%)
    tran: time = 29.01 ms    (72.5 %), step = 49.38 us     (123 m%)
    tran: time = 31.02 ms    (77.6 %), step = 48.18 us     (120 m%)
    tran: time = 33.04 ms    (82.6 %), step = 47.19 us     (118 m%)
    tran: time = 35 ms       (87.5 %), step = 49.99 us     (125 m%)
    tran: time = 37.02 ms    (92.5 %), step = 48.67 us     (122 m%)
    tran: time = 39.03 ms    (97.6 %), step = 47.58 us     (119 m%)
Number of accepted tran steps =             851

Maximum value achieved for any signal of each quantity: 
V: V(S<0>) = 3.3 V
I: I(V0:p) = 6.487 uA
Maximum value of each quantity, excluding Verilog-A modules or dangling current sources:
V: V(vout_filt) = 1.614 V
I: I(V0:p) = 6.487 uA

~~~~~~~~~~~~~~~~~~~~~~~~~~~~~~~~~
Post-Transient Simulation Summary
~~~~~~~~~~~~~~~~~~~~~~~~~~~~~~~~~
   -   To further speed up simulation, consider
          add ++aps on command line
   -   Non-default settings that could significantly slow down simulation
          errpreset = conservative, default moderate
          reltol = 10e-06, default 100e-06 (conservative)
~~~~~~~~~~~~~~~~~~~~~~~~~~~~~~~~~


During simulation, the CPU load for active processors is :
         0 (21.6 %)      1 (13.0 %)      2 (92.4 %)      3 (3.3 %)
         4 (2.4 %)       5 (5.3 %)       6 (3.3 %)       7 (2.4 %)
         8 (68.1 %)      9 (6.9 %)      10 (25.7 %)     11 (9.3 %)
        12 (8.8 %)      13 (3.7 %)      14 (3.3 %)      15 (30.2 %)
        16 (46.0 %)     17 (6.1 %)      18 (48.8 %)     19 (4.5 %)
        20 (13.0 %)     21 (44.5 %)     22 (14.8 %)     23 (19.5 %)
        24 (10.0 %)     25 (6.9 %)      26 (4.0 %)      27 (4.5 %)
        28 (2.0 %)      29 (1.6 %)      30 (2.0 %)      31 (100.0 %)
        32 (3.2 %)      33 (78.1 %)     34 (5.2 %)      35 (3.2 %)
        36 (10.7 %)     37 (5.3 %)      38 (6.9 %)      39 (100.0 %)
        40 (49.6 %)     41 (5.3 %)      42 (16.3 %)     43 (8.5 %)
        44 (30.6 %)     45 (11.6 %)     46 (4.6 %)      47 (19.6 %)
        Total: 986.6%
Initial condition solution time: CPU = 2.314 ms, elapsed = 2.316 ms.
Intrinsic tran analysis time:    CPU = 445.169 ms, elapsed = 446.159 ms.
Total time required for tran analysis `tran': CPU = 449.035 ms, elapsed = 450.557 ms, util. = 99.7%.
Time accumulated: CPU = 2.05401 s, elapsed = 2.56069 s.
Peak resident memory used = 214 Mbytes.


Notice from spectre during transient analysis `tran', during Monte Carlo analysis `mc1'.
    34 warnings suppressed.

finalTimeOP: writing operating point information to rawfile.

Opening the PSF file ../psf/mc1_separate/002/finalTimeOP.info ...
modelParameter: writing model parameter values to rawfile.

Opening the PSF file ../psf/mc1_separate/002/modelParameter.info ...
element: writing instance parameter values to rawfile.

Opening the PSF file ../psf/mc1_separate/002/element.info ...
outputParameter: writing output parameter values to rawfile.

Opening the PSF file ../psf/mc1_separate/002/outputParameter.info ...
designParamVals: writing netlist parameters to rawfile.

Opening the PSFASCII file ../psf/mc1_separate/002/designParamVals.info ...
primitives: writing primitives to rawfile.

Opening the PSFASCII file ../psf/mc1_separate/002/primitives.info.primitives ...
subckts: writing subcircuits to rawfile.

Opening the PSFASCII file ../psf/mc1_separate/002/subckts.info.subckts ...
3   4.08% 

*****************************************************************************************
* 
* INFO: AMS_processOption = C35B4C3
* 
* INFO: Valid Modules  PIP VG5 HIRES
* 
*****************************************************************************************


******************
DC Analysis `dcOp'
******************

Opening the PSF file ../psf/mc1_separate/003/dcOp.dc ...
Important parameter values:
    reltol = 100e-06
    abstol(V) = 1 uV
    abstol(I) = 1 pA
    temp = -40 C
    tnom = 27 C
    tempeffects = all
    gmindc = 1 pS
    rabsshort = 1 mOhm

Notice from spectre during DC analysis `dcOp', during Monte Carlo analysis `mc1'.
    GminDC = 1 pS is large enough to noticeably affect the DC solution.
        dV(vout) = -223.567 uV
        Use the `gmin_check' option to eliminate or expand this report.
    Bad pivoting is found during DC analysis. Option dc_pivot_check=yes is recommended for possible improvement of convergence.


Maximum value achieved for any signal of each quantity: 
V: V(S<0>) = 3.3 V
I: I(V0:p) = 6.349 uA
Maximum value of each quantity, excluding Verilog-A modules or dangling current sources:
V: V(vout_filt) = 1.6 V
I: I(V0:p) = 6.349 uA

Warning from spectre during check, during DC analysis `dcOp', during Monte Carlo analysis `mc1'.
    WARNING (CMI-2943): Parameter checks have been ignored because the valid value for parameter 'trise' could not be found in 'C1'.
    WARNING (CMI-2943): Parameter checks have been ignored because the valid value for parameter 'trise' could not be found in 'I0.R2.CM'.
    WARNING (CMI-2943): Parameter checks have been ignored because the valid value for parameter 'trise' could not be found in 'I0.R2.CS1'.
    WARNING (CMI-2943): Parameter checks have been ignored because the valid value for parameter 'trise' could not be found in 'I0.R2.CS0'.
    WARNING (CMI-2943): Parameter checks have been ignored because the valid value for parameter 'trise' could not be found in 'I0.C8<3>.C1'.
        Further occurrences of this warning will be suppressed.

Convergence achieved in 17 iterations.
DC simulation time: CPU = 5.377 ms, elapsed = 6.48785 ms.
Total time required for dc analysis `dcOp': CPU = 5.911 ms, elapsed = 7.02 ms, util. = 84.2%.
Time accumulated: CPU = 2.09422 s, elapsed = 2.61139 s.
Peak resident memory used = 214 Mbytes.


Notice from spectre during Monte Carlo analysis `mc1'.
    34 warnings suppressed.

dcOpInfo: writing operating point information to rawfile.

Opening the PSF file ../psf/mc1_separate/003/dcOpInfo.info ...

************************************************
Transient Analysis `tran': time = (0 s -> 40 ms)
************************************************

Opening the PSF file ../psf/mc1_separate/003/tran.tran.tran ...

Notice from spectre during IC analysis, during transient analysis `tran', during Monte Carlo analysis `mc1'.
    GminDC = 1 pS is large enough to noticeably affect the DC solution.
        dV(vout) = -223.567 uV
        Use the `gmin_check' option to eliminate or expand this report.
    Bad pivoting is found during DC analysis. Option dc_pivot_check=yes is recommended for possible improvement of convergence.
Warning from spectre during check, during IC analysis, during transient analysis `tran', during Monte Carlo analysis `mc1'.
    WARNING (CMI-2943): Parameter checks have been ignored because the valid value for parameter 'trise' could not be found in 'C1'.
    WARNING (CMI-2943): Parameter checks have been ignored because the valid value for parameter 'trise' could not be found in 'I0.R2.CM'.
    WARNING (CMI-2943): Parameter checks have been ignored because the valid value for parameter 'trise' could not be found in 'I0.R2.CS1'.
    WARNING (CMI-2943): Parameter checks have been ignored because the valid value for parameter 'trise' could not be found in 'I0.R2.CS0'.
    WARNING (CMI-2943): Parameter checks have been ignored because the valid value for parameter 'trise' could not be found in 'I0.C8<3>.C1'.
        Further occurrences of this warning will be suppressed.

Convergence achieved in 17 iterations.
DC simulation time: CPU = 2.339 ms, elapsed = 2.33984 ms.
Important parameter values:
    start = 0 s
    outputstart = 0 s
    stop = 40 ms
    step = 40 us
    maxstep = 400 us
    ic = all
    useprevic = no
    skipdc = no
    reltol = 10e-06
    abstol(V) = 1 uV
    abstol(I) = 1 pA
    temp = -40 C
    tnom = 27 C
    tempeffects = all
    errpreset = conservative
    method = gear2only
    lteratio = 10
    relref = alllocal
    cmin = 0 F
    gmin = 1 pS
    rabsshort = 1 mOhm


Notice from spectre during transient analysis `tran', during Monte Carlo analysis `mc1'.
    Multithreading is disabled due to the size of the design being too small.


Output and IC/nodeset summary:
                 save   8       (current)
                 save   87      (voltage)

    tran: time = 1.01 ms     (2.53 %), step = 49.38 us     (123 m%)
    tran: time = 3.024 ms    (7.56 %), step = 48.18 us     (120 m%)
    tran: time = 5.037 ms    (12.6 %), step = 47.2 us      (118 m%)
    tran: time = 7.004 ms    (17.5 %), step = 50 us        (125 m%)
    tran: time = 9.018 ms    (22.5 %), step = 48.69 us     (122 m%)
    tran: time = 11.03 ms    (27.6 %), step = 47.59 us     (119 m%)
    tran: time = 13.04 ms    (32.6 %), step = 46.75 us     (117 m%)
    tran: time = 15.01 ms    (37.5 %), step = 49.24 us     (123 m%)
    tran: time = 17.03 ms    (42.6 %), step = 48.06 us     (120 m%)
    tran: time = 19.04 ms    (47.6 %), step = 47.11 us     (118 m%)
    tran: time = 21.01 ms    (52.5 %), step = 49.85 us     (125 m%)
    tran: time = 23.02 ms    (57.5 %), step = 48.57 us     (121 m%)
    tran: time = 25.03 ms    (62.6 %), step = 47.5 us      (119 m%)
    tran: time = 27.05 ms    (67.6 %), step = 46.68 us     (117 m%)
    tran: time = 29.01 ms    (72.5 %), step = 49.11 us     (123 m%)
    tran: time = 31.03 ms    (77.6 %), step = 47.95 us     (120 m%)
    tran: time = 33.04 ms    (82.6 %), step = 47.03 us     (118 m%)
    tran: time = 35.01 ms    (87.5 %), step = 49.71 us     (124 m%)
    tran: time = 37.02 ms    (92.6 %), step = 48.45 us     (121 m%)
    tran: time = 39.03 ms    (97.6 %), step = 47.41 us     (119 m%)
Number of accepted tran steps =             851

Maximum value achieved for any signal of each quantity: 
V: V(S<0>) = 3.3 V
I: I(V0:p) = 6.349 uA
Maximum value of each quantity, excluding Verilog-A modules or dangling current sources:
V: V(vout_filt) = 1.614 V
I: I(V0:p) = 6.349 uA

~~~~~~~~~~~~~~~~~~~~~~~~~~~~~~~~~
Post-Transient Simulation Summary
~~~~~~~~~~~~~~~~~~~~~~~~~~~~~~~~~
   -   To further speed up simulation, consider
          add ++aps on command line
   -   Non-default settings that could significantly slow down simulation
          errpreset = conservative, default moderate
          reltol = 10e-06, default 100e-06 (conservative)
~~~~~~~~~~~~~~~~~~~~~~~~~~~~~~~~~


During simulation, the CPU load for active processors is :
         0 (23.3 %)      1 (11.1 %)      2 (91.7 %)      3 (3.4 %)
         4 (3.7 %)       5 (5.4 %)       6 (3.0 %)       7 (2.4 %)
         8 (72.6 %)      9 (23.3 %)     10 (21.6 %)     11 (8.4 %)
        12 (7.7 %)      13 (3.7 %)      14 (3.7 %)      15 (42.6 %)
        16 (38.5 %)     17 (5.0 %)      18 (55.9 %)     19 (4.4 %)
        20 (11.1 %)     21 (41.3 %)     22 (30.0 %)     23 (23.3 %)
        24 (8.3 %)      25 (23.0 %)     26 (4.0 %)      27 (4.4 %)
        28 (1.7 %)      29 (2.0 %)      30 (1.7 %)      31 (100.0 %)
        32 (4.3 %)      33 (64.5 %)     34 (8.3 %)      35 (11.7 %)
        36 (12.8 %)     37 (5.4 %)      38 (7.7 %)      39 (100.0 %)
        40 (50.2 %)     41 (6.8 %)      42 (15.5 %)     43 (8.4 %)
        44 (27.8 %)     45 (10.7 %)     46 (6.1 %)      47 (16.6 %)
        Total: 1038.8%
Initial condition solution time: CPU = 2.367 ms, elapsed = 2.36893 ms.
Intrinsic tran analysis time:    CPU = 457.417 ms, elapsed = 458.756 ms.
Total time required for tran analysis `tran': CPU = 461.479 ms, elapsed = 463.455 ms, util. = 99.6%.
Time accumulated: CPU = 2.56244 s, elapsed = 3.08397 s.
Peak resident memory used = 214 Mbytes.


Notice from spectre during transient analysis `tran', during Monte Carlo analysis `mc1'.
    34 warnings suppressed.

finalTimeOP: writing operating point information to rawfile.

Opening the PSF file ../psf/mc1_separate/003/finalTimeOP.info ...
modelParameter: writing model parameter values to rawfile.

Opening the PSF file ../psf/mc1_separate/003/modelParameter.info ...
element: writing instance parameter values to rawfile.

Opening the PSF file ../psf/mc1_separate/003/element.info ...
outputParameter: writing output parameter values to rawfile.

Opening the PSF file ../psf/mc1_separate/003/outputParameter.info ...
designParamVals: writing netlist parameters to rawfile.

Opening the PSFASCII file ../psf/mc1_separate/003/designParamVals.info ...
primitives: writing primitives to rawfile.

Opening the PSFASCII file ../psf/mc1_separate/003/primitives.info.primitives ...
subckts: writing subcircuits to rawfile.

Opening the PSFASCII file ../psf/mc1_separate/003/subckts.info.subckts ...
    mc1: iteration = 3           (4.08 %), step = 1            (2.04 %)
4   6.12% 

*****************************************************************************************
* 
* INFO: AMS_processOption = C35B4C3
* 
* INFO: Valid Modules  PIP VG5 HIRES
* 
*****************************************************************************************


******************
DC Analysis `dcOp'
******************

Opening the PSF file ../psf/mc1_separate/004/dcOp.dc ...
Important parameter values:
    reltol = 100e-06
    abstol(V) = 1 uV
    abstol(I) = 1 pA
    temp = -40 C
    tnom = 27 C
    tempeffects = all
    gmindc = 1 pS
    rabsshort = 1 mOhm

Notice from spectre during DC analysis `dcOp', during Monte Carlo analysis `mc1'.
    GminDC = 1 pS is large enough to noticeably affect the DC solution.
        dV(vout) = -223.487 uV
        Use the `gmin_check' option to eliminate or expand this report.
    Bad pivoting is found during DC analysis. Option dc_pivot_check=yes is recommended for possible improvement of convergence.


Maximum value achieved for any signal of each quantity: 
V: V(S<0>) = 3.3 V
I: I(V0:p) = 6.536 uA
Maximum value of each quantity, excluding Verilog-A modules or dangling current sources:
V: V(net1) = 1.6 V
I: I(V0:p) = 6.536 uA

Warning from spectre during check, during DC analysis `dcOp', during Monte Carlo analysis `mc1'.
    WARNING (CMI-2943): Parameter checks have been ignored because the valid value for parameter 'trise' could not be found in 'C1'.
    WARNING (CMI-2943): Parameter checks have been ignored because the valid value for parameter 'trise' could not be found in 'I0.R2.CM'.
    WARNING (CMI-2943): Parameter checks have been ignored because the valid value for parameter 'trise' could not be found in 'I0.R2.CS1'.
    WARNING (CMI-2943): Parameter checks have been ignored because the valid value for parameter 'trise' could not be found in 'I0.R2.CS0'.
    WARNING (CMI-2943): Parameter checks have been ignored because the valid value for parameter 'trise' could not be found in 'I0.C8<3>.C1'.
        Further occurrences of this warning will be suppressed.

Convergence achieved in 19 iterations.
DC simulation time: CPU = 4.895 ms, elapsed = 6.01006 ms.
Total time required for dc analysis `dcOp': CPU = 5.305 ms, elapsed = 6.4199 ms, util. = 82.6%.
Time accumulated: CPU = 2.60249 s, elapsed = 3.13486 s.
Peak resident memory used = 214 Mbytes.


Notice from spectre during Monte Carlo analysis `mc1'.
    34 warnings suppressed.

dcOpInfo: writing operating point information to rawfile.

Opening the PSF file ../psf/mc1_separate/004/dcOpInfo.info ...

************************************************
Transient Analysis `tran': time = (0 s -> 40 ms)
************************************************

Opening the PSF file ../psf/mc1_separate/004/tran.tran.tran ...

Notice from spectre during IC analysis, during transient analysis `tran', during Monte Carlo analysis `mc1'.
    GminDC = 1 pS is large enough to noticeably affect the DC solution.
        dV(vout) = -223.487 uV
        Use the `gmin_check' option to eliminate or expand this report.
    Bad pivoting is found during DC analysis. Option dc_pivot_check=yes is recommended for possible improvement of convergence.
Warning from spectre during check, during IC analysis, during transient analysis `tran', during Monte Carlo analysis `mc1'.
    WARNING (CMI-2943): Parameter checks have been ignored because the valid value for parameter 'trise' could not be found in 'C1'.
    WARNING (CMI-2943): Parameter checks have been ignored because the valid value for parameter 'trise' could not be found in 'I0.R2.CM'.
    WARNING (CMI-2943): Parameter checks have been ignored because the valid value for parameter 'trise' could not be found in 'I0.R2.CS1'.
    WARNING (CMI-2943): Parameter checks have been ignored because the valid value for parameter 'trise' could not be found in 'I0.R2.CS0'.
    WARNING (CMI-2943): Parameter checks have been ignored because the valid value for parameter 'trise' could not be found in 'I0.C8<3>.C1'.
        Further occurrences of this warning will be suppressed.

Convergence achieved in 19 iterations.
DC simulation time: CPU = 2.618 ms, elapsed = 2.61903 ms.
Important parameter values:
    start = 0 s
    outputstart = 0 s
    stop = 40 ms
    step = 40 us
    maxstep = 400 us
    ic = all
    useprevic = no
    skipdc = no
    reltol = 10e-06
    abstol(V) = 1 uV
    abstol(I) = 1 pA
    temp = -40 C
    tnom = 27 C
    tempeffects = all
    errpreset = conservative
    method = gear2only
    lteratio = 10
    relref = alllocal
    cmin = 0 F
    gmin = 1 pS
    rabsshort = 1 mOhm


Notice from spectre during transient analysis `tran', during Monte Carlo analysis `mc1'.
    Multithreading is disabled due to the size of the design being too small.


Output and IC/nodeset summary:
                 save   8       (current)
                 save   87      (voltage)

    tran: time = 1.032 ms    (2.58 %), step = 47.55 us     (119 m%)
    tran: time = 3.045 ms    (7.61 %), step = 46.73 us     (117 m%)
    tran: time = 5.011 ms    (12.5 %), step = 49.24 us     (123 m%)
    tran: time = 7.025 ms    (17.6 %), step = 48.08 us     (120 m%)
    tran: time = 9.038 ms    (22.6 %), step = 47.14 us     (118 m%)
    tran: time = 11 ms       (27.5 %), step = 49.94 us     (125 m%)
    tran: time = 13.02 ms    (32.5 %), step = 48.66 us     (122 m%)
    tran: time = 15.03 ms    (37.6 %), step = 47.59 us     (119 m%)
    tran: time = 17.04 ms    (42.6 %), step = 46.76 us     (117 m%)
    tran: time = 19.01 ms    (47.5 %), step = 49.29 us     (123 m%)
    tran: time = 21.02 ms    (52.6 %), step = 48.12 us     (120 m%)
    tran: time = 23.04 ms    (57.6 %), step = 47.17 us     (118 m%)
    tran: time = 25 ms       (62.5 %), step = 49.99 us     (125 m%)
    tran: time = 27.02 ms    (67.5 %), step = 48.7 us      (122 m%)
    tran: time = 29.03 ms    (72.6 %), step = 47.62 us     (119 m%)
    tran: time = 31.04 ms    (77.6 %), step = 46.79 us     (117 m%)
    tran: time = 33.01 ms    (82.5 %), step = 49.33 us     (123 m%)
    tran: time = 35.02 ms    (87.6 %), step = 48.16 us     (120 m%)
    tran: time = 37.04 ms    (92.6 %), step = 47.2 us      (118 m%)
    tran: time = 39 ms       (97.5 %), step = 50 us        (125 m%)
Number of accepted tran steps =             851

Maximum value achieved for any signal of each quantity: 
V: V(S<0>) = 3.3 V
I: I(V0:p) = 6.536 uA
Maximum value of each quantity, excluding Verilog-A modules or dangling current sources:
V: V(vout_filt) = 1.613 V
I: I(V0:p) = 6.536 uA

~~~~~~~~~~~~~~~~~~~~~~~~~~~~~~~~~
Post-Transient Simulation Summary
~~~~~~~~~~~~~~~~~~~~~~~~~~~~~~~~~
   -   To further speed up simulation, consider
          add ++aps on command line
   -   Non-default settings that could significantly slow down simulation
          errpreset = conservative, default moderate
          reltol = 10e-06, default 100e-06 (conservative)
~~~~~~~~~~~~~~~~~~~~~~~~~~~~~~~~~


During simulation, the CPU load for active processors is :
         0 (20.4 %)      1 (10.0 %)      2 (78.5 %)      3 (2.9 %)
         4 (4.0 %)       5 (4.6 %)       6 (2.9 %)       7 (2.3 %)
         8 (76.2 %)      9 (21.3 %)     10 (21.8 %)     11 (10.9 %)
        12 (20.7 %)     13 (3.7 %)      14 (3.2 %)      15 (51.3 %)
        16 (34.5 %)     17 (4.9 %)      18 (48.4 %)     19 (3.7 %)
        20 (10.0 %)     21 (50.0 %)     22 (39.5 %)     23 (34.7 %)
        24 (7.4 %)      25 (31.4 %)     26 (3.4 %)      27 (4.0 %)
        28 (15.1 %)     29 (2.0 %)      30 (1.7 %)      31 (100.0 %)
        32 (13.3 %)     33 (55.7 %)     34 (7.1 %)      35 (10.3 %)
        36 (23.1 %)     37 (5.7 %)      38 (7.4 %)      39 (100.0 %)
        40 (43.5 %)     41 (8.9 %)      42 (13.5 %)     43 (8.0 %)
        44 (27.1 %)     45 (10.5 %)     46 (6.3 %)      47 (14.4 %)
        Total: 1080.2%
Initial condition solution time: CPU = 2.648 ms, elapsed = 2.65002 ms.
Intrinsic tran analysis time:    CPU = 459.901 ms, elapsed = 465.832 ms.
Total time required for tran analysis `tran': CPU = 464.259 ms, elapsed = 470.847 ms, util. = 98.6%.
Time accumulated: CPU = 3.07331 s, elapsed = 3.61442 s.
Peak resident memory used = 214 Mbytes.


Notice from spectre during transient analysis `tran', during Monte Carlo analysis `mc1'.
    34 warnings suppressed.

finalTimeOP: writing operating point information to rawfile.

Opening the PSF file ../psf/mc1_separate/004/finalTimeOP.info ...
modelParameter: writing model parameter values to rawfile.

Opening the PSF file ../psf/mc1_separate/004/modelParameter.info ...
element: writing instance parameter values to rawfile.

Opening the PSF file ../psf/mc1_separate/004/element.info ...
outputParameter: writing output parameter values to rawfile.

Opening the PSF file ../psf/mc1_separate/004/outputParameter.info ...
designParamVals: writing netlist parameters to rawfile.

Opening the PSFASCII file ../psf/mc1_separate/004/designParamVals.info ...
primitives: writing primitives to rawfile.

Opening the PSFASCII file ../psf/mc1_separate/004/primitives.info.primitives ...
subckts: writing subcircuits to rawfile.

Opening the PSFASCII file ../psf/mc1_separate/004/subckts.info.subckts ...
    mc1: iteration = 4           (6.12 %), step = 1            (2.04 %)
5   8.16% 

*****************************************************************************************
* 
* INFO: AMS_processOption = C35B4C3
* 
* INFO: Valid Modules  PIP VG5 HIRES
* 
*****************************************************************************************


******************
DC Analysis `dcOp'
******************

Opening the PSF file ../psf/mc1_separate/005/dcOp.dc ...
Important parameter values:
    reltol = 100e-06
    abstol(V) = 1 uV
    abstol(I) = 1 pA
    temp = -40 C
    tnom = 27 C
    tempeffects = all
    gmindc = 1 pS
    rabsshort = 1 mOhm

Notice from spectre during DC analysis `dcOp', during Monte Carlo analysis `mc1'.
    GminDC = 1 pS is large enough to noticeably affect the DC solution.
        dV(vout) = -223.853 uV
        Use the `gmin_check' option to eliminate or expand this report.
    Bad pivoting is found during DC analysis. Option dc_pivot_check=yes is recommended for possible improvement of convergence.


Maximum value achieved for any signal of each quantity: 
V: V(S<0>) = 3.3 V
I: I(V0:p) = 6.422 uA
Maximum value of each quantity, excluding Verilog-A modules or dangling current sources:
V: V(vout_filt) = 1.601 V
I: I(V0:p) = 6.422 uA

Warning from spectre during check, during DC analysis `dcOp', during Monte Carlo analysis `mc1'.
    WARNING (CMI-2943): Parameter checks have been ignored because the valid value for parameter 'trise' could not be found in 'C1'.
    WARNING (CMI-2943): Parameter checks have been ignored because the valid value for parameter 'trise' could not be found in 'I0.R2.CM'.
    WARNING (CMI-2943): Parameter checks have been ignored because the valid value for parameter 'trise' could not be found in 'I0.R2.CS1'.
    WARNING (CMI-2943): Parameter checks have been ignored because the valid value for parameter 'trise' could not be found in 'I0.R2.CS0'.
    WARNING (CMI-2943): Parameter checks have been ignored because the valid value for parameter 'trise' could not be found in 'I0.C8<3>.C1'.
        Further occurrences of this warning will be suppressed.

Convergence achieved in 18 iterations.
DC simulation time: CPU = 5.701 ms, elapsed = 6.97112 ms.
Total time required for dc analysis `dcOp': CPU = 6.189 ms, elapsed = 7.45821 ms, util. = 83%.
Time accumulated: CPU = 3.1181 s, elapsed = 3.67077 s.
Peak resident memory used = 214 Mbytes.


Notice from spectre during Monte Carlo analysis `mc1'.
    34 warnings suppressed.

dcOpInfo: writing operating point information to rawfile.

Opening the PSF file ../psf/mc1_separate/005/dcOpInfo.info ...

************************************************
Transient Analysis `tran': time = (0 s -> 40 ms)
************************************************

Opening the PSF file ../psf/mc1_separate/005/tran.tran.tran ...

Notice from spectre during IC analysis, during transient analysis `tran', during Monte Carlo analysis `mc1'.
    GminDC = 1 pS is large enough to noticeably affect the DC solution.
        dV(vout) = -223.853 uV
        Use the `gmin_check' option to eliminate or expand this report.
    Bad pivoting is found during DC analysis. Option dc_pivot_check=yes is recommended for possible improvement of convergence.
Warning from spectre during check, during IC analysis, during transient analysis `tran', during Monte Carlo analysis `mc1'.
    WARNING (CMI-2943): Parameter checks have been ignored because the valid value for parameter 'trise' could not be found in 'C1'.
    WARNING (CMI-2943): Parameter checks have been ignored because the valid value for parameter 'trise' could not be found in 'I0.R2.CM'.
    WARNING (CMI-2943): Parameter checks have been ignored because the valid value for parameter 'trise' could not be found in 'I0.R2.CS1'.
    WARNING (CMI-2943): Parameter checks have been ignored because the valid value for parameter 'trise' could not be found in 'I0.R2.CS0'.
    WARNING (CMI-2943): Parameter checks have been ignored because the valid value for parameter 'trise' could not be found in 'I0.C8<3>.C1'.
        Further occurrences of this warning will be suppressed.

Convergence achieved in 18 iterations.
DC simulation time: CPU = 2.787 ms, elapsed = 2.78783 ms.
Important parameter values:
    start = 0 s
    outputstart = 0 s
    stop = 40 ms
    step = 40 us
    maxstep = 400 us
    ic = all
    useprevic = no
    skipdc = no
    reltol = 10e-06
    abstol(V) = 1 uV
    abstol(I) = 1 pA
    temp = -40 C
    tnom = 27 C
    tempeffects = all
    errpreset = conservative
    method = gear2only
    lteratio = 10
    relref = alllocal
    cmin = 0 F
    gmin = 1 pS
    rabsshort = 1 mOhm


Notice from spectre during transient analysis `tran', during Monte Carlo analysis `mc1'.
    Multithreading is disabled due to the size of the design being too small.


Output and IC/nodeset summary:
                 save   8       (current)
                 save   87      (voltage)

    tran: time = 1.028 ms    (2.57 %), step = 47.81 us     (120 m%)
    tran: time = 3.042 ms    (7.61 %), step = 46.91 us     (117 m%)
    tran: time = 5.009 ms    (12.5 %), step = 49.49 us     (124 m%)
    tran: time = 7.023 ms    (17.6 %), step = 48.26 us     (121 m%)
    tran: time = 9.037 ms    (22.6 %), step = 47.25 us     (118 m%)
    tran: time = 11 ms       (27.5 %), step = 50 us        (125 m%)
    tran: time = 13.02 ms    (32.5 %), step = 48.74 us     (122 m%)
    tran: time = 15.03 ms    (37.6 %), step = 47.62 us     (119 m%)
    tran: time = 17.04 ms    (42.6 %), step = 46.77 us     (117 m%)
    tran: time = 19.01 ms    (47.5 %), step = 49.25 us     (123 m%)
    tran: time = 21.03 ms    (52.6 %), step = 48.06 us     (120 m%)
    tran: time = 23.04 ms    (57.6 %), step = 47.1 us      (118 m%)
    tran: time = 25.01 ms    (62.5 %), step = 49.82 us     (125 m%)
    tran: time = 27.02 ms    (67.5 %), step = 48.53 us     (121 m%)
    tran: time = 29.03 ms    (72.6 %), step = 47.46 us     (119 m%)
    tran: time = 31 ms       (77.5 %), step = 50 us        (125 m%)
    tran: time = 33.01 ms    (82.5 %), step = 49.03 us     (123 m%)
    tran: time = 35.03 ms    (87.6 %), step = 47.87 us     (120 m%)
    tran: time = 37.04 ms    (92.6 %), step = 46.95 us     (117 m%)
    tran: time = 39.01 ms    (97.5 %), step = 49.57 us     (124 m%)
Number of accepted tran steps =             851

Maximum value achieved for any signal of each quantity: 
V: V(S<0>) = 3.3 V
I: I(V0:p) = 6.422 uA
Maximum value of each quantity, excluding Verilog-A modules or dangling current sources:
V: V(vout_filt) = 1.614 V
I: I(V0:p) = 6.422 uA

~~~~~~~~~~~~~~~~~~~~~~~~~~~~~~~~~
Post-Transient Simulation Summary
~~~~~~~~~~~~~~~~~~~~~~~~~~~~~~~~~
   -   To further speed up simulation, consider
          add ++aps on command line
   -   Non-default settings that could significantly slow down simulation
          errpreset = conservative, default moderate
          reltol = 10e-06, default 100e-06 (conservative)
~~~~~~~~~~~~~~~~~~~~~~~~~~~~~~~~~


During simulation, the CPU load for active processors is :
         0 (17.8 %)      1 (8.8 %)       2 (68.7 %)      3 (11.2 %)
         4 (6.2 %)       5 (4.5 %)       6 (2.5 %)       7 (2.7 %)
         8 (70.6 %)      9 (19.8 %)     10 (31.7 %)     11 (12.2 %)
        12 (29.1 %)     13 (4.0 %)      14 (4.5 %)      15 (57.7 %)
        16 (31.8 %)     17 (4.2 %)      18 (52.2 %)     19 (3.7 %)
        20 (8.7 %)      21 (56.7 %)     22 (47.6 %)     23 (32.6 %)
        24 (7.7 %)      25 (27.7 %)     26 (3.4 %)      27 (3.7 %)
        28 (13.4 %)     29 (2.0 %)      30 (1.7 %)      31 (100.0 %)
        32 (12.0 %)     33 (48.6 %)     34 (6.7 %)      35 (20.2 %)
        36 (21.3 %)     37 (7.0 %)      38 (7.0 %)      39 (100.0 %)
        40 (50.2 %)     41 (10.9 %)     42 (12.2 %)     43 (7.7 %)
        44 (23.8 %)     45 (9.7 %)      46 (5.5 %)      47 (12.6 %)
        Total: 1104.7%
Initial condition solution time: CPU = 2.827 ms, elapsed = 2.82812 ms.
Intrinsic tran analysis time:    CPU = 461.491 ms, elapsed = 463.009 ms.
Total time required for tran analysis `tran': CPU = 466.214 ms, elapsed = 468.32 ms, util. = 99.6%.
Time accumulated: CPU = 3.59086 s, elapsed = 4.14829 s.
Peak resident memory used = 214 Mbytes.


Notice from spectre during transient analysis `tran', during Monte Carlo analysis `mc1'.
    34 warnings suppressed.

finalTimeOP: writing operating point information to rawfile.

Opening the PSF file ../psf/mc1_separate/005/finalTimeOP.info ...
modelParameter: writing model parameter values to rawfile.

Opening the PSF file ../psf/mc1_separate/005/modelParameter.info ...
element: writing instance parameter values to rawfile.

Opening the PSF file ../psf/mc1_separate/005/element.info ...
outputParameter: writing output parameter values to rawfile.

Opening the PSF file ../psf/mc1_separate/005/outputParameter.info ...
designParamVals: writing netlist parameters to rawfile.

Opening the PSFASCII file ../psf/mc1_separate/005/designParamVals.info ...
primitives: writing primitives to rawfile.

Opening the PSFASCII file ../psf/mc1_separate/005/primitives.info.primitives ...
subckts: writing subcircuits to rawfile.

Opening the PSFASCII file ../psf/mc1_separate/005/subckts.info.subckts ...
    mc1: iteration = 5           (8.16 %), step = 1            (2.04 %)
6  10.20% 

*****************************************************************************************
* 
* INFO: AMS_processOption = C35B4C3
* 
* INFO: Valid Modules  PIP VG5 HIRES
* 
*****************************************************************************************


******************
DC Analysis `dcOp'
******************

Opening the PSF file ../psf/mc1_separate/006/dcOp.dc ...
Important parameter values:
    reltol = 100e-06
    abstol(V) = 1 uV
    abstol(I) = 1 pA
    temp = -40 C
    tnom = 27 C
    tempeffects = all
    gmindc = 1 pS
    rabsshort = 1 mOhm

Notice from spectre during DC analysis `dcOp', during Monte Carlo analysis `mc1'.
    GminDC = 1 pS is large enough to noticeably affect the DC solution.
        dV(vout) = -223.445 uV
        Use the `gmin_check' option to eliminate or expand this report.
    Bad pivoting is found during DC analysis. Option dc_pivot_check=yes is recommended for possible improvement of convergence.


Maximum value achieved for any signal of each quantity: 
V: V(S<0>) = 3.3 V
I: I(V0:p) = 6.456 uA
Maximum value of each quantity, excluding Verilog-A modules or dangling current sources:
V: V(net1) = 1.6 V
I: I(V0:p) = 6.456 uA

Warning from spectre during check, during DC analysis `dcOp', during Monte Carlo analysis `mc1'.
    WARNING (CMI-2943): Parameter checks have been ignored because the valid value for parameter 'trise' could not be found in 'C1'.
    WARNING (CMI-2943): Parameter checks have been ignored because the valid value for parameter 'trise' could not be found in 'I0.R2.CM'.
    WARNING (CMI-2943): Parameter checks have been ignored because the valid value for parameter 'trise' could not be found in 'I0.R2.CS1'.
    WARNING (CMI-2943): Parameter checks have been ignored because the valid value for parameter 'trise' could not be found in 'I0.R2.CS0'.
    WARNING (CMI-2943): Parameter checks have been ignored because the valid value for parameter 'trise' could not be found in 'I0.C8<3>.C1'.
        Further occurrences of this warning will be suppressed.

Convergence achieved in 17 iterations.
DC simulation time: CPU = 5.301 ms, elapsed = 6.48499 ms.
Total time required for dc analysis `dcOp': CPU = 5.744 ms, elapsed = 6.92797 ms, util. = 82.9%.
Time accumulated: CPU = 3.63057 s, elapsed = 4.19837 s.
Peak resident memory used = 214 Mbytes.


Notice from spectre during Monte Carlo analysis `mc1'.
    34 warnings suppressed.

dcOpInfo: writing operating point information to rawfile.

Opening the PSF file ../psf/mc1_separate/006/dcOpInfo.info ...

************************************************
Transient Analysis `tran': time = (0 s -> 40 ms)
************************************************

Opening the PSF file ../psf/mc1_separate/006/tran.tran.tran ...

Notice from spectre during IC analysis, during transient analysis `tran', during Monte Carlo analysis `mc1'.
    GminDC = 1 pS is large enough to noticeably affect the DC solution.
        dV(vout) = -223.445 uV
        Use the `gmin_check' option to eliminate or expand this report.
    Bad pivoting is found during DC analysis. Option dc_pivot_check=yes is recommended for possible improvement of convergence.
Warning from spectre during check, during IC analysis, during transient analysis `tran', during Monte Carlo analysis `mc1'.
    WARNING (CMI-2943): Parameter checks have been ignored because the valid value for parameter 'trise' could not be found in 'C1'.
    WARNING (CMI-2943): Parameter checks have been ignored because the valid value for parameter 'trise' could not be found in 'I0.R2.CM'.
    WARNING (CMI-2943): Parameter checks have been ignored because the valid value for parameter 'trise' could not be found in 'I0.R2.CS1'.
    WARNING (CMI-2943): Parameter checks have been ignored because the valid value for parameter 'trise' could not be found in 'I0.R2.CS0'.
    WARNING (CMI-2943): Parameter checks have been ignored because the valid value for parameter 'trise' could not be found in 'I0.C8<3>.C1'.
        Further occurrences of this warning will be suppressed.

Convergence achieved in 17 iterations.
DC simulation time: CPU = 2.307 ms, elapsed = 2.30813 ms.
Important parameter values:
    start = 0 s
    outputstart = 0 s
    stop = 40 ms
    step = 40 us
    maxstep = 400 us
    ic = all
    useprevic = no
    skipdc = no
    reltol = 10e-06
    abstol(V) = 1 uV
    abstol(I) = 1 pA
    temp = -40 C
    tnom = 27 C
    tempeffects = all
    errpreset = conservative
    method = gear2only
    lteratio = 10
    relref = alllocal
    cmin = 0 F
    gmin = 1 pS
    rabsshort = 1 mOhm


Notice from spectre during transient analysis `tran', during Monte Carlo analysis `mc1'.
    Multithreading is disabled due to the size of the design being too small.


Output and IC/nodeset summary:
                 save   8       (current)
                 save   87      (voltage)

    tran: time = 1.006 ms    (2.51 %), step = 49.83 us     (125 m%)
    tran: time = 3.019 ms    (7.55 %), step = 48.56 us     (121 m%)
    tran: time = 5.032 ms    (12.6 %), step = 47.51 us     (119 m%)
    tran: time = 7.046 ms    (17.6 %), step = 46.69 us     (117 m%)
    tran: time = 9.012 ms    (22.5 %), step = 49.15 us     (123 m%)
    tran: time = 11.03 ms    (27.6 %), step = 47.99 us     (120 m%)
    tran: time = 13.04 ms    (32.6 %), step = 47.06 us     (118 m%)
    tran: time = 15.01 ms    (37.5 %), step = 49.8 us      (124 m%)
    tran: time = 17.02 ms    (42.5 %), step = 48.53 us     (121 m%)
    tran: time = 19.03 ms    (47.6 %), step = 47.48 us     (119 m%)
    tran: time = 21.05 ms    (52.6 %), step = 46.67 us     (117 m%)
    tran: time = 23.01 ms    (57.5 %), step = 49.12 us     (123 m%)
    tran: time = 25.03 ms    (62.6 %), step = 47.97 us     (120 m%)
    tran: time = 27.04 ms    (67.6 %), step = 47.04 us     (118 m%)
    tran: time = 29.01 ms    (72.5 %), step = 49.76 us     (124 m%)
    tran: time = 31.02 ms    (77.5 %), step = 48.51 us     (121 m%)
    tran: time = 33.03 ms    (82.6 %), step = 47.46 us     (119 m%)
    tran: time = 35.05 ms    (87.6 %), step = 46.65 us     (117 m%)
    tran: time = 37.01 ms    (92.5 %), step = 49.09 us     (123 m%)
    tran: time = 39.03 ms    (97.6 %), step = 47.94 us     (120 m%)
Number of accepted tran steps =             851

Maximum value achieved for any signal of each quantity: 
V: V(S<0>) = 3.3 V
I: I(V0:p) = 6.457 uA
Maximum value of each quantity, excluding Verilog-A modules or dangling current sources:
V: V(vout_filt) = 1.613 V
I: I(V0:p) = 6.457 uA

~~~~~~~~~~~~~~~~~~~~~~~~~~~~~~~~~
Post-Transient Simulation Summary
~~~~~~~~~~~~~~~~~~~~~~~~~~~~~~~~~
   -   To further speed up simulation, consider
          add ++aps on command line
   -   Non-default settings that could significantly slow down simulation
          errpreset = conservative, default moderate
          reltol = 10e-06, default 100e-06 (conservative)
~~~~~~~~~~~~~~~~~~~~~~~~~~~~~~~~~


During simulation, the CPU load for active processors is :
         0 (17.9 %)      1 (8.2 %)       2 (61.4 %)      3 (21.0 %)
         4 (5.9 %)       5 (4.4 %)       6 (2.4 %)       7 (2.7 %)
         8 (63.0 %)      9 (17.8 %)     10 (39.4 %)     11 (13.2 %)
        12 (28.1 %)     13 (3.8 %)      14 (4.4 %)      15 (62.5 %)
        16 (28.8 %)     17 (5.3 %)      18 (46.6 %)     19 (14.3 %)
        20 (7.9 %)      21 (61.6 %)     22 (52.9 %)     23 (29.4 %)
        24 (16.2 %)     25 (24.6 %)     26 (3.1 %)      27 (3.7 %)
        28 (11.9 %)     29 (1.8 %)      30 (1.8 %)      31 (100.0 %)
        32 (10.9 %)     33 (43.4 %)     34 (11.2 %)     35 (23.7 %)
        36 (19.8 %)     37 (6.7 %)      38 (6.4 %)      39 (100.0 %)
        40 (55.2 %)     41 (11.9 %)     42 (11.8 %)     43 (7.1 %)
        44 (21.4 %)     45 (9.1 %)      46 (5.4 %)      47 (11.6 %)
        Total: 1121.2%
Initial condition solution time: CPU = 2.335 ms, elapsed = 2.33698 ms.
Intrinsic tran analysis time:    CPU = 452.884 ms, elapsed = 454.527 ms.
Total time required for tran analysis `tran': CPU = 456.831 ms, elapsed = 458.987 ms, util. = 99.5%.
Time accumulated: CPU = 4.09377 s, elapsed = 4.66601 s.
Peak resident memory used = 214 Mbytes.


Notice from spectre during transient analysis `tran', during Monte Carlo analysis `mc1'.
    34 warnings suppressed.

finalTimeOP: writing operating point information to rawfile.

Opening the PSF file ../psf/mc1_separate/006/finalTimeOP.info ...
modelParameter: writing model parameter values to rawfile.

Opening the PSF file ../psf/mc1_separate/006/modelParameter.info ...
element: writing instance parameter values to rawfile.

Opening the PSF file ../psf/mc1_separate/006/element.info ...
outputParameter: writing output parameter values to rawfile.

Opening the PSF file ../psf/mc1_separate/006/outputParameter.info ...
designParamVals: writing netlist parameters to rawfile.

Opening the PSFASCII file ../psf/mc1_separate/006/designParamVals.info ...
primitives: writing primitives to rawfile.

Opening the PSFASCII file ../psf/mc1_separate/006/primitives.info.primitives ...
subckts: writing subcircuits to rawfile.

Opening the PSFASCII file ../psf/mc1_separate/006/subckts.info.subckts ...
    mc1: iteration = 6           (10.2 %), step = 1            (2.04 %)
7  12.24% 

*****************************************************************************************
* 
* INFO: AMS_processOption = C35B4C3
* 
* INFO: Valid Modules  PIP VG5 HIRES
* 
*****************************************************************************************


******************
DC Analysis `dcOp'
******************

Opening the PSF file ../psf/mc1_separate/007/dcOp.dc ...
Important parameter values:
    reltol = 100e-06
    abstol(V) = 1 uV
    abstol(I) = 1 pA
    temp = -40 C
    tnom = 27 C
    tempeffects = all
    gmindc = 1 pS
    rabsshort = 1 mOhm

Notice from spectre during DC analysis `dcOp', during Monte Carlo analysis `mc1'.
    GminDC = 1 pS is large enough to noticeably affect the DC solution.
        dV(vout) = -223.831 uV
        Use the `gmin_check' option to eliminate or expand this report.
    Bad pivoting is found during DC analysis. Option dc_pivot_check=yes is recommended for possible improvement of convergence.


Maximum value achieved for any signal of each quantity: 
V: V(S<0>) = 3.3 V
I: I(V0:p) = 6.655 uA
Maximum value of each quantity, excluding Verilog-A modules or dangling current sources:
V: V(vout_filt) = 1.601 V
I: I(V0:p) = 6.655 uA

Warning from spectre during check, during DC analysis `dcOp', during Monte Carlo analysis `mc1'.
    WARNING (CMI-2943): Parameter checks have been ignored because the valid value for parameter 'trise' could not be found in 'C1'.
    WARNING (CMI-2943): Parameter checks have been ignored because the valid value for parameter 'trise' could not be found in 'I0.R2.CM'.
    WARNING (CMI-2943): Parameter checks have been ignored because the valid value for parameter 'trise' could not be found in 'I0.R2.CS1'.
    WARNING (CMI-2943): Parameter checks have been ignored because the valid value for parameter 'trise' could not be found in 'I0.R2.CS0'.
    WARNING (CMI-2943): Parameter checks have been ignored because the valid value for parameter 'trise' could not be found in 'I0.C8<3>.C1'.
        Further occurrences of this warning will be suppressed.

Convergence achieved in 18 iterations.
DC simulation time: CPU = 4.58 ms, elapsed = 5.79095 ms.
Total time required for dc analysis `dcOp': CPU = 4.994 ms, elapsed = 6.20413 ms, util. = 80.5%.
Time accumulated: CPU = 4.13273 s, elapsed = 4.7168 s.
Peak resident memory used = 214 Mbytes.


Notice from spectre during Monte Carlo analysis `mc1'.
    34 warnings suppressed.

dcOpInfo: writing operating point information to rawfile.

Opening the PSF file ../psf/mc1_separate/007/dcOpInfo.info ...

************************************************
Transient Analysis `tran': time = (0 s -> 40 ms)
************************************************

Opening the PSF file ../psf/mc1_separate/007/tran.tran.tran ...

Notice from spectre during IC analysis, during transient analysis `tran', during Monte Carlo analysis `mc1'.
    GminDC = 1 pS is large enough to noticeably affect the DC solution.
        dV(vout) = -223.831 uV
        Use the `gmin_check' option to eliminate or expand this report.
    Bad pivoting is found during DC analysis. Option dc_pivot_check=yes is recommended for possible improvement of convergence.
Warning from spectre during check, during IC analysis, during transient analysis `tran', during Monte Carlo analysis `mc1'.
    WARNING (CMI-2943): Parameter checks have been ignored because the valid value for parameter 'trise' could not be found in 'C1'.
[...]
element: writing instance parameter values to rawfile.

Opening the PSF file ../psf/mc1_separate/048/element.info ...
outputParameter: writing output parameter values to rawfile.

Opening the PSF file ../psf/mc1_separate/048/outputParameter.info ...
designParamVals: writing netlist parameters to rawfile.

Opening the PSFASCII file ../psf/mc1_separate/048/designParamVals.info ...
primitives: writing primitives to rawfile.

Opening the PSFASCII file ../psf/mc1_separate/048/primitives.info.primitives ...
subckts: writing subcircuits to rawfile.

Opening the PSFASCII file ../psf/mc1_separate/048/subckts.info.subckts ...
    mc1: iteration = 48          (95.9 %), step = 1            (2.04 %)
49  97.96% 

*****************************************************************************************
* 
* INFO: AMS_processOption = C35B4C3
* 
* INFO: Valid Modules  PIP VG5 HIRES
* 
*****************************************************************************************


******************
DC Analysis `dcOp'
******************

Opening the PSF file ../psf/mc1_separate/049/dcOp.dc ...
Important parameter values:
    reltol = 100e-06
    abstol(V) = 1 uV
    abstol(I) = 1 pA
    temp = -40 C
    tnom = 27 C
    tempeffects = all
    gmindc = 1 pS
    rabsshort = 1 mOhm

Notice from spectre during DC analysis `dcOp', during Monte Carlo analysis `mc1'.
    GminDC = 1 pS is large enough to noticeably affect the DC solution.
        dV(vout) = -223.676 uV
        Use the `gmin_check' option to eliminate or expand this report.
    Bad pivoting is found during DC analysis. Option dc_pivot_check=yes is recommended for possible improvement of convergence.


Maximum value achieved for any signal of each quantity: 
V: V(S<0>) = 3.3 V
I: I(V0:p) = 6.5 uA
Maximum value of each quantity, excluding Verilog-A modules or dangling current sources:
V: V(vout_filt) = 1.6 V
I: I(V0:p) = 6.5 uA

Warning from spectre during check, during DC analysis `dcOp', during Monte Carlo analysis `mc1'.
    WARNING (CMI-2943): Parameter checks have been ignored because the valid value for parameter 'trise' could not be found in 'C1'.
    WARNING (CMI-2943): Parameter checks have been ignored because the valid value for parameter 'trise' could not be found in 'I0.R2.CM'.
    WARNING (CMI-2943): Parameter checks have been ignored because the valid value for parameter 'trise' could not be found in 'I0.R2.CS1'.
    WARNING (CMI-2943): Parameter checks have been ignored because the valid value for parameter 'trise' could not be found in 'I0.R2.CS0'.
    WARNING (CMI-2943): Parameter checks have been ignored because the valid value for parameter 'trise' could not be found in 'I0.C8<3>.C1'.
        Further occurrences of this warning will be suppressed.

Convergence achieved in 17 iterations.
DC simulation time: CPU = 5.44 ms, elapsed = 6.38485 ms.
Total time required for dc analysis `dcOp': CPU = 5.996 ms, elapsed = 6.93893 ms, util. = 86.4%.
Time accumulated: CPU = 25.273 s, elapsed = 26.5589 s.
Peak resident memory used = 215 Mbytes.


Notice from spectre during Monte Carlo analysis `mc1'.
    34 warnings suppressed.

dcOpInfo: writing operating point information to rawfile.

Opening the PSF file ../psf/mc1_separate/049/dcOpInfo.info ...

************************************************
Transient Analysis `tran': time = (0 s -> 40 ms)
************************************************

Opening the PSF file ../psf/mc1_separate/049/tran.tran.tran ...

Notice from spectre during IC analysis, during transient analysis `tran', during Monte Carlo analysis `mc1'.
    GminDC = 1 pS is large enough to noticeably affect the DC solution.
        dV(vout) = -223.676 uV
        Use the `gmin_check' option to eliminate or expand this report.
    Bad pivoting is found during DC analysis. Option dc_pivot_check=yes is recommended for possible improvement of convergence.
Warning from spectre during check, during IC analysis, during transient analysis `tran', during Monte Carlo analysis `mc1'.
    WARNING (CMI-2943): Parameter checks have been ignored because the valid value for parameter 'trise' could not be found in 'C1'.
    WARNING (CMI-2943): Parameter checks have been ignored because the valid value for parameter 'trise' could not be found in 'I0.R2.CM'.
    WARNING (CMI-2943): Parameter checks have been ignored because the valid value for parameter 'trise' could not be found in 'I0.R2.CS1'.
    WARNING (CMI-2943): Parameter checks have been ignored because the valid value for parameter 'trise' could not be found in 'I0.R2.CS0'.
    WARNING (CMI-2943): Parameter checks have been ignored because the valid value for parameter 'trise' could not be found in 'I0.C8<3>.C1'.
        Further occurrences of this warning will be suppressed.

Convergence achieved in 17 iterations.
DC simulation time: CPU = 2.675 ms, elapsed = 2.67601 ms.
Important parameter values:
    start = 0 s
    outputstart = 0 s
    stop = 40 ms
    step = 40 us
    maxstep = 400 us
    ic = all
    useprevic = no
    skipdc = no
    reltol = 10e-06
    abstol(V) = 1 uV
    abstol(I) = 1 pA
    temp = -40 C
    tnom = 27 C
    tempeffects = all
    errpreset = conservative
    method = gear2only
    lteratio = 10
    relref = alllocal
    cmin = 0 F
    gmin = 1 pS
    rabsshort = 1 mOhm


Notice from spectre during transient analysis `tran', during Monte Carlo analysis `mc1'.
    Multithreading is disabled due to the size of the design being too small.


Output and IC/nodeset summary:
                 save   8       (current)
                 save   87      (voltage)

    tran: time = 1.007 ms    (2.52 %), step = 49.68 us     (124 m%)
    tran: time = 3.021 ms    (7.55 %), step = 48.42 us     (121 m%)
    tran: time = 5.034 ms    (12.6 %), step = 47.38 us     (118 m%)
    tran: time = 7.001 ms    (17.5 %), step = 50 us        (125 m%)
    tran: time = 9.015 ms    (22.5 %), step = 48.93 us     (122 m%)
    tran: time = 11.03 ms    (27.6 %), step = 47.79 us     (119 m%)
    tran: time = 13.04 ms    (32.6 %), step = 46.9 us      (117 m%)
    tran: time = 15.01 ms    (37.5 %), step = 49.48 us     (124 m%)
    tran: time = 17.02 ms    (42.6 %), step = 48.26 us     (121 m%)
    tran: time = 19.04 ms    (47.6 %), step = 47.25 us     (118 m%)
    tran: time = 21 ms       (52.5 %), step = 50 us        (125 m%)
    tran: time = 23.02 ms    (57.5 %), step = 48.76 us     (122 m%)
    tran: time = 25.03 ms    (62.6 %), step = 47.64 us     (119 m%)
    tran: time = 27.04 ms    (67.6 %), step = 46.79 us     (117 m%)
    tran: time = 29.01 ms    (72.5 %), step = 49.28 us     (123 m%)
    tran: time = 31.02 ms    (77.6 %), step = 48.09 us     (120 m%)
    tran: time = 33.04 ms    (82.6 %), step = 47.13 us     (118 m%)
    tran: time = 35.01 ms    (87.5 %), step = 49.88 us     (125 m%)
    tran: time = 37.02 ms    (92.5 %), step = 48.58 us     (121 m%)
    tran: time = 39.03 ms    (97.6 %), step = 47.51 us     (119 m%)
Number of accepted tran steps =             851

Maximum value achieved for any signal of each quantity: 
V: V(S<0>) = 3.3 V
I: I(V0:p) = 6.5 uA
Maximum value of each quantity, excluding Verilog-A modules or dangling current sources:
V: V(vout_filt) = 1.614 V
I: I(V0:p) = 6.5 uA

~~~~~~~~~~~~~~~~~~~~~~~~~~~~~~~~~
Post-Transient Simulation Summary
~~~~~~~~~~~~~~~~~~~~~~~~~~~~~~~~~
   -   To further speed up simulation, consider
          add ++aps on command line
   -   Non-default settings that could significantly slow down simulation
          errpreset = conservative, default moderate
          reltol = 10e-06, default 100e-06 (conservative)
~~~~~~~~~~~~~~~~~~~~~~~~~~~~~~~~~


During simulation, the CPU load for active processors is :
         0 (28.5 %)      1 (11.2 %)      2 (40.6 %)      3 (32.5 %)
         4 (10.1 %)      5 (6.7 %)       6 (5.5 %)       7 (10.2 %)
         8 (36.2 %)      9 (10.9 %)     10 (57.9 %)     11 (22.9 %)
        12 (16.4 %)     13 (30.4 %)     14 (13.6 %)     15 (52.0 %)
        16 (40.9 %)     17 (41.7 %)     18 (47.2 %)     19 (25.9 %)
        20 (9.4 %)      21 (59.5 %)     22 (21.1 %)     23 (28.7 %)
        24 (47.6 %)     25 (17.7 %)     26 (13.5 %)     27 (16.8 %)
        28 (13.4 %)     29 (39.3 %)     30 (5.3 %)      31 (100.0 %)
        32 (11.0 %)     33 (27.2 %)     34 (16.4 %)     35 (59.3 %)
        36 (36.1 %)     37 (26.7 %)     38 (8.2 %)      39 (100.0 %)
        40 (33.7 %)     41 (28.6 %)     42 (13.4 %)     43 (6.7 %)
        44 (11.3 %)     45 (31.5 %)     46 (14.7 %)     47 (13.7 %)
        Total: 1352.0%
Initial condition solution time: CPU = 2.716 ms, elapsed = 2.71702 ms.
Intrinsic tran analysis time:    CPU = 451.301 ms, elapsed = 452.672 ms.
Total time required for tran analysis `tran': CPU = 455.958 ms, elapsed = 457.841 ms, util. = 99.6%.
Time accumulated: CPU = 25.7351 s, elapsed = 27.025 s.
Peak resident memory used = 215 Mbytes.


Notice from spectre during transient analysis `tran', during Monte Carlo analysis `mc1'.
    34 warnings suppressed.

finalTimeOP: writing operating point information to rawfile.

Opening the PSF file ../psf/mc1_separate/049/finalTimeOP.info ...
modelParameter: writing model parameter values to rawfile.

Opening the PSF file ../psf/mc1_separate/049/modelParameter.info ...
element: writing instance parameter values to rawfile.

Opening the PSF file ../psf/mc1_separate/049/element.info ...
outputParameter: writing output parameter values to rawfile.

Opening the PSF file ../psf/mc1_separate/049/outputParameter.info ...
designParamVals: writing netlist parameters to rawfile.

Opening the PSFASCII file ../psf/mc1_separate/049/designParamVals.info ...
primitives: writing primitives to rawfile.

Opening the PSFASCII file ../psf/mc1_separate/049/primitives.info.primitives ...
subckts: writing subcircuits to rawfile.

Opening the PSFASCII file ../psf/mc1_separate/049/subckts.info.subckts ...
    mc1: iteration = 49            (98 %), step = 1            (2.04 %)
50 100.00% 

*****************************************************************************************
* 
* INFO: AMS_processOption = C35B4C3
* 
* INFO: Valid Modules  PIP VG5 HIRES
* 
*****************************************************************************************


******************
DC Analysis `dcOp'
******************

Opening the PSF file ../psf/mc1_separate/050/dcOp.dc ...
Important parameter values:
    reltol = 100e-06
    abstol(V) = 1 uV
    abstol(I) = 1 pA
    temp = -40 C
    tnom = 27 C
    tempeffects = all
    gmindc = 1 pS
    rabsshort = 1 mOhm

Notice from spectre during DC analysis `dcOp', during Monte Carlo analysis `mc1'.
    GminDC = 1 pS is large enough to noticeably affect the DC solution.
        dV(vout) = -223.685 uV
        Use the `gmin_check' option to eliminate or expand this report.
    Bad pivoting is found during DC analysis. Option dc_pivot_check=yes is recommended for possible improvement of convergence.


Maximum value achieved for any signal of each quantity: 
V: V(S<0>) = 3.3 V
I: I(V0:p) = 6.428 uA
Maximum value of each quantity, excluding Verilog-A modules or dangling current sources:
V: V(vout_filt) = 1.601 V
I: I(V0:p) = 6.428 uA

Warning from spectre during check, during DC analysis `dcOp', during Monte Carlo analysis `mc1'.
    WARNING (CMI-2943): Parameter checks have been ignored because the valid value for parameter 'trise' could not be found in 'C1'.
    WARNING (CMI-2943): Parameter checks have been ignored because the valid value for parameter 'trise' could not be found in 'I0.R2.CM'.
    WARNING (CMI-2943): Parameter checks have been ignored because the valid value for parameter 'trise' could not be found in 'I0.R2.CS1'.
    WARNING (CMI-2943): Parameter checks have been ignored because the valid value for parameter 'trise' could not be found in 'I0.R2.CS0'.
    WARNING (CMI-2943): Parameter checks have been ignored because the valid value for parameter 'trise' could not be found in 'I0.C8<3>.C1'.
        Further occurrences of this warning will be suppressed.

Convergence achieved in 18 iterations.
DC simulation time: CPU = 5.208 ms, elapsed = 6.52099 ms.
Total time required for dc analysis `dcOp': CPU = 5.691 ms, elapsed = 7.00092 ms, util. = 81.3%.
Time accumulated: CPU = 25.7769 s, elapsed = 27.0813 s.
Peak resident memory used = 215 Mbytes.


Notice from spectre during Monte Carlo analysis `mc1'.
    34 warnings suppressed.

dcOpInfo: writing operating point information to rawfile.

Opening the PSF file ../psf/mc1_separate/050/dcOpInfo.info ...

************************************************
Transient Analysis `tran': time = (0 s -> 40 ms)
************************************************

Opening the PSF file ../psf/mc1_separate/050/tran.tran.tran ...

Notice from spectre during IC analysis, during transient analysis `tran', during Monte Carlo analysis `mc1'.
    GminDC = 1 pS is large enough to noticeably affect the DC solution.
        dV(vout) = -223.685 uV
        Use the `gmin_check' option to eliminate or expand this report.
    Bad pivoting is found during DC analysis. Option dc_pivot_check=yes is recommended for possible improvement of convergence.
Warning from spectre during check, during IC analysis, during transient analysis `tran', during Monte Carlo analysis `mc1'.
    WARNING (CMI-2943): Parameter checks have been ignored because the valid value for parameter 'trise' could not be found in 'C1'.
    WARNING (CMI-2943): Parameter checks have been ignored because the valid value for parameter 'trise' could not be found in 'I0.R2.CM'.
    WARNING (CMI-2943): Parameter checks have been ignored because the valid value for parameter 'trise' could not be found in 'I0.R2.CS1'.
    WARNING (CMI-2943): Parameter checks have been ignored because the valid value for parameter 'trise' could not be found in 'I0.R2.CS0'.
    WARNING (CMI-2943): Parameter checks have been ignored because the valid value for parameter 'trise' could not be found in 'I0.C8<3>.C1'.
        Further occurrences of this warning will be suppressed.

Convergence achieved in 18 iterations.
DC simulation time: CPU = 2.661 ms, elapsed = 2.84004 ms.
Important parameter values:
    start = 0 s
    outputstart = 0 s
    stop = 40 ms
    step = 40 us
    maxstep = 400 us
    ic = all
    useprevic = no
    skipdc = no
    reltol = 10e-06
    abstol(V) = 1 uV
    abstol(I) = 1 pA
    temp = -40 C
    tnom = 27 C
    tempeffects = all
    errpreset = conservative
    method = gear2only
    lteratio = 10
    relref = alllocal
    cmin = 0 F
    gmin = 1 pS
    rabsshort = 1 mOhm


Notice from spectre during transient analysis `tran', during Monte Carlo analysis `mc1'.
    Multithreading is disabled due to the size of the design being too small.


Output and IC/nodeset summary:
                 save   8       (current)
                 save   87      (voltage)

    tran: time = 1.029 ms    (2.57 %), step = 47.73 us     (119 m%)
    tran: time = 3.043 ms    (7.61 %), step = 46.85 us     (117 m%)
    tran: time = 5.01 ms     (12.5 %), step = 49.38 us     (123 m%)
    tran: time = 7.024 ms    (17.6 %), step = 48.16 us     (120 m%)
    tran: time = 9.038 ms    (22.6 %), step = 47.17 us     (118 m%)
    tran: time = 11.01 ms    (27.5 %), step = 49.93 us     (125 m%)
    tran: time = 13.02 ms    (32.5 %), step = 48.61 us     (122 m%)
    tran: time = 15.03 ms    (37.6 %), step = 47.52 us     (119 m%)
    tran: time = 17.05 ms    (42.6 %), step = 46.68 us     (117 m%)
    tran: time = 19.01 ms    (47.5 %), step = 49.1 us      (123 m%)
    tran: time = 21.03 ms    (52.6 %), step = 47.93 us     (120 m%)
    tran: time = 23.04 ms    (57.6 %), step = 46.99 us     (117 m%)
    tran: time = 25.01 ms    (62.5 %), step = 49.63 us     (124 m%)
    tran: time = 27.02 ms    (67.6 %), step = 48.36 us     (121 m%)
    tran: time = 29.04 ms    (72.6 %), step = 47.33 us     (118 m%)
    tran: time = 31 ms       (77.5 %), step = 50 us        (125 m%)
    tran: time = 33.02 ms    (82.5 %), step = 48.83 us     (122 m%)
    tran: time = 35.03 ms    (87.6 %), step = 47.7 us      (119 m%)
    tran: time = 37.04 ms    (92.6 %), step = 46.82 us     (117 m%)
    tran: time = 39.01 ms    (97.5 %), step = 49.33 us     (123 m%)
Number of accepted tran steps =             851

Maximum value achieved for any signal of each quantity: 
V: V(S<0>) = 3.3 V
I: I(V0:p) = 6.428 uA
Maximum value of each quantity, excluding Verilog-A modules or dangling current sources:
V: V(vout_filt) = 1.614 V
I: I(V0:p) = 6.428 uA

~~~~~~~~~~~~~~~~~~~~~~~~~~~~~~~~~
Post-Transient Simulation Summary
~~~~~~~~~~~~~~~~~~~~~~~~~~~~~~~~~
   -   To further speed up simulation, consider
          add ++aps on command line
   -   Non-default settings that could significantly slow down simulation
          errpreset = conservative, default moderate
          reltol = 10e-06, default 100e-06 (conservative)
~~~~~~~~~~~~~~~~~~~~~~~~~~~~~~~~~


During simulation, the CPU load for active processors is :
         0 (27.9 %)      1 (11.7 %)      2 (41.9 %)      3 (32.3 %)
         4 (10.0 %)      5 (7.6 %)       6 (5.5 %)       7 (10.0 %)
         8 (35.4 %)      9 (10.7 %)     10 (56.8 %)     11 (24.5 %)
        12 (17.7 %)     13 (30.9 %)     14 (13.7 %)     15 (51.2 %)
        16 (41.2 %)     17 (41.0 %)     18 (47.1 %)     19 (25.6 %)
        20 (9.3 %)      21 (58.6 %)     22 (21.9 %)     23 (28.5 %)
        24 (46.6 %)     25 (19.4 %)     26 (13.2 %)     27 (16.5 %)
        28 (15.1 %)     29 (38.7 %)     30 (5.2 %)      31 (100.0 %)
        32 (10.8 %)     33 (28.7 %)     34 (16.5 %)     35 (58.1 %)
        36 (35.8 %)     37 (26.3 %)     38 (8.1 %)      39 (100.0 %)
        40 (33.1 %)     41 (29.0 %)     42 (14.3 %)     43 (6.6 %)
        44 (11.1 %)     45 (30.9 %)     46 (14.5 %)     47 (15.6 %)
        Total: 1355.1%
Initial condition solution time: CPU = 2.704 ms, elapsed = 2.90084 ms.
Intrinsic tran analysis time:    CPU = 474.484 ms, elapsed = 505.097 ms.
Total time required for tran analysis `tran': CPU = 479.454 ms, elapsed = 511.351 ms, util. = 93.8%.
Time accumulated: CPU = 26.263 s, elapsed = 27.6018 s.
Peak resident memory used = 215 Mbytes.


Notice from spectre during transient analysis `tran', during Monte Carlo analysis `mc1'.
    34 warnings suppressed.

finalTimeOP: writing operating point information to rawfile.

Opening the PSF file ../psf/mc1_separate/050/finalTimeOP.info ...
modelParameter: writing model parameter values to rawfile.

Opening the PSF file ../psf/mc1_separate/050/modelParameter.info ...
element: writing instance parameter values to rawfile.

Opening the PSF file ../psf/mc1_separate/050/element.info ...
outputParameter: writing output parameter values to rawfile.

Opening the PSF file ../psf/mc1_separate/050/outputParameter.info ...
designParamVals: writing netlist parameters to rawfile.

Opening the PSFASCII file ../psf/mc1_separate/050/designParamVals.info ...
primitives: writing primitives to rawfile.

Opening the PSFASCII file ../psf/mc1_separate/050/primitives.info.primitives ...
subckts: writing subcircuits to rawfile.

Opening the PSFASCII file ../psf/mc1_separate/050/subckts.info.subckts ...
    mc1: iteration = 50           (100 %), step = 1            (2.04 %)
Total time required for montecarlo analysis `mc1': CPU = 25.847 s, elapsed = 26.7317 s, util. = 96.7%.
Time accumulated: CPU = 26.2874 s, elapsed = 27.6367 s.
Peak resident memory used = 215 Mbytes.

Licensing Information:
Lic Summary:
[09:07:49.351203] Cdslmd servers:3000@lic08.ug.kth.se:29000@lic06.ug.kth.se
[09:07:49.351242] Feature usage summary:
[09:07:49.351248] Virtuoso_Multi_mode_Simulation


Aggregate audit (9:07:49 AM, Thur Apr 16, 2026):
Time used: CPU = 26.3 s, elapsed = 27.7 s, util. = 95.1%.
Time spent in licensing: elapsed = 49.2 ms.
Peak memory used = 215 Mbytes.
Simulation started at: 9:07:21 AM, Thur Apr 16, 2026, ended at: 9:07:49 AM, Thur Apr 16, 2026, with elapsed time (wall clock): 27.7 s.
spectre completes with 0 errors, 527 warnings, and 364 notices.
