
Spectre (R) Circuit Simulator
Version 24.1.0.288.isr5 64bit -- 3 Apr 2025
Copyright (C) 1989-2025 Cadence Design Systems, Inc. All rights reserved worldwide. Cadence and Spectre are registered trademarks of Cadence Design Systems, Inc. All others are the property of their respective holders.

Includes RSA BSAFE(R) Cryptographic or Security Protocol Software from RSA Security, Inc.

User: davidevi   Host: il2244vt26_davidevi   HostID: 11AC2C00   PID: 488847
Memory  available: 3.0727 TB  physical: 3.2467 TB
Linux   : Rocky Linux release 8.10 (Green Obsidian)
CPU Type: Intel(R) Xeon(R) CPU E7-8857 v2 @ 3.00GHz
        Socket: Processors [Frequency]
        0:       0 [2999.9],  1 [1200.0],  2 [1200.0],  3 [2999.9],  4 [1200.0]
                 5 [1200.0],  6 [2500.0],  7 [3600.0],  8 [2700.0],  9 [3100.0]
                10 [3600.0], 11 [1200.0]
        1:      12 [2700.0], 13 [3000.0], 14 [2700.0], 15 [2200.0], 16 [2999.9]
                17 [2999.9], 18 [1200.0], 19 [2500.0], 20 [1200.0], 21 [1200.0]
                22 [1200.0], 23 [1200.0]
        2:      24 [1200.0], 25 [2999.9], 26 [1200.0], 27 [1200.0], 28 [1200.0]
                29 [1200.0], 30 [1200.0], 31 [1200.0], 32 [1200.0], 33 [2999.9]
                34 [2999.9], 35 [1200.0]
        3:      36 [2600.0], 37 [1200.0], 38 [2999.9], 39 [1200.0], 40 [2999.9]
                41 [2900.0], 42 [2500.0], 43 [3600.0], 44 [2600.0], 45 [1200.0]
                46 [2600.0], 47 [3600.0]
        
System load averages (1min, 5min, 15min) : 13.6 %, 12.4 %, 12.4 %
HPC is enabled


Simulating `input.scs' on il2244vt26_davidevi at 8:40:01 AM, Tue Mar 17, 2026 (process id: 488847).
Current working directory: /home/davidevi/Desktop/myproject/Sim/VGA_bias_step/spectre/schematic/netlist
Command line:
    /opt/tools/cadence/installs/SPECTRE241/tools/bin/spectre -64  \
        input.scs +escchars +log ../psf/spectre.out -format psfbin  \
        +rtsf -raw ../psf +aps +mt +lqtimeout 900 -maxw 5 -maxn 5  \
        +param /opt/pdk/ams/410/spectre/ams_range.lmts -env ade  \
        +adespetkn=adespe

Licensing Information:
[08:40:01.121706] Configured Lic search path (24.01-s002): 3000@lic08.ug.kth.se:29000@lic06.ug.kth.se

Licensing Information:
[08:40:01.413842] Periodic Lic check successful

Loading /opt/tools/cadence/installs/SPECTRE241/tools.lnx86/cmi/lib/64bit/5.0/libinfineon_sh.so ...
Loading /opt/tools/cadence/installs/SPECTRE241/tools.lnx86/cmi/lib/64bit/5.0/libphilips_I_sh.so ...
Loading /opt/tools/cadence/installs/SPECTRE241/tools.lnx86/cmi/lib/64bit/5.0/libphilips_sh.so ...
Loading /opt/tools/cadence/installs/SPECTRE241/tools.lnx86/cmi/lib/64bit/5.0/libsparam_sh.so ...
Loading /opt/tools/cadence/installs/SPECTRE241/tools.lnx86/cmi/lib/64bit/5.0/libstmodels_sh.so ...

Warning from spectre.
    WARNING (SPECTRE-691): This CPU processor does not support x86 advanced vector extensions instructions. This may affect math operations and slow down the simulation.

Reading file:  /home/davidevi/Desktop/myproject/Sim/VGA_bias_step/spectre/schematic/netlist/input.scs
Reading file:  /opt/pdk/ams/410/spectre/ams_range.lmts

Warning from spectre during read of parameter soft limits file `/opt/pdk/ams/410/spectre/ams_range.lmts', during circuit read-in.
    WARNING (SPECTRE-8360): line 1511: `ac' is an undefined primitive device.
    WARNING (SPECTRE-8360): line 1512: `ac' is an undefined primitive device.
    WARNING (SPECTRE-8360): line 1513: `ac' is an undefined primitive device.
    WARNING (SPECTRE-8360): line 1514: `ac' is an undefined primitive device.
    WARNING (SPECTRE-8360): line 1515: `ac' is an undefined primitive device.
        Further occurrences of this warning will be suppressed.

Reading file:  /opt/tools/cadence/installs/SPECTRE241/tools.lnx86/spectre/etc/configs/spectre.cfg
Reading file:  /opt/pdk/ams/410/spectre/c35/soac/soac.scs
Reading file:  /opt/pdk/ams/410/spectre/c35/soac/processOption.scs
Reading file:  /opt/pdk/ams/410/spectre/c35/soac/process.scs
Reading file:  /opt/pdk/ams/410/spectre/c35/soac/soac.va

Warning from spectre during AHDL read-in.
    WARNING (VACOMP-2435): The environment variable CDS_AHDLCMI_ENABLE is no longer supported. Therefore, the simulator will use the default compiled C code flow.

Reading link:  /opt/tools/cadence/installs/SPECTRE241/tools.lnx86/spectre/etc/ahdl/constants.h
Reading file:  /opt/tools/cadence/installs/SPECTRE241/tools.lnx86/spectre/etc/ahdl/constants.vams
Reading link:  /opt/tools/cadence/installs/SPECTRE241/tools.lnx86/spectre/etc/ahdl/discipline.h
Reading file:  /opt/tools/cadence/installs/SPECTRE241/tools.lnx86/spectre/etc/ahdl/disciplines.vams
Reading file:  /opt/pdk/ams/410/spectre/c35/processOption/C35B4C3.scs
Reading file:  /opt/pdk/ams/410/spectre/c35/soac/cmos53.scs
Reading file:  /opt/pdk/ams/410/spectre/c35/soac/res.scs
Reading file:  /opt/pdk/ams/410/spectre/c35/soac/cap.scs
Reading file:  /opt/pdk/ams/410/spectre/c35/soac/bip.scs
Reading file:  /opt/pdk/ams/410/spectre/c35/soac/ind.scs
Reading file:  /opt/pdk/ams/410/spectre/c35/soac/esddiode.scs
Time for NDB Parsing: CPU = 160.441 ms, elapsed = 324.624 ms.
Time accumulated: CPU = 353.556 ms, elapsed = 324.626 ms.
Peak resident memory used = 175 Mbytes.

Existing shared object for module modp_ahdl is up to date.
Installed compiled interface for modp_ahdl.
Existing shared object for module modn_ahdl is up to date.
Installed compiled interface for modn_ahdl.
Time for Elaboration: CPU = 31.499 ms, elapsed = 32.531 ms.
Time accumulated: CPU = 385.185 ms, elapsed = 357.287 ms.
Peak resident memory used = 185 Mbytes.


Notice from spectre during hierarchy flattening.
    The value 'psf' specified for the 'checklimitdest' option will no longer be supported in future releases. Use 'spectre -h' to see other recommended values for the 'checklimitdest' option.


*****************************************************************************************
* 
* INFO: AMS_processOption = C35B4C3
* 
* INFO: Valid Modules  PIP VG5 HIRES
* 
*****************************************************************************************


Time for EDB Visiting: CPU = 3.019 ms, elapsed = 3.02005 ms.
Time accumulated: CPU = 388.36 ms, elapsed = 360.461 ms.
Peak resident memory used = 188 Mbytes.

Loading /opt/tools/cadence/installs/SPECTRE241/tools.lnx86/mdl/lib/64bit/libSpectreEH_sh.so ...

Warning from spectre during initial setup.
    WARNING (SPECTRE-16460): SOAC_cvarm_vspsub:Specified subcircuit master `cvarm' was not found.
    WARNING (SPECTRE-16462): SOAC_cvarm_vspsub:Error in specification of subcircuit master. Assert is ignored.
    WARNING (SPECTRE-16460): SOAC_cvarm_vbs:Specified subcircuit master `cvarm' was not found.
    WARNING (SPECTRE-16462): SOAC_cvarm_vbs:Error in specification of subcircuit master. Assert is ignored.
    WARNING (SPECTRE-16460): SOAC_cvarm_vgb:Specified subcircuit master `cvarm' was not found.
    WARNING (SPECTRE-16462): SOAC_cvarm_vgb:Error in specification of subcircuit master. Assert is ignored.
    WARNING (SPECTRE-16460): SOAC_cvart_vspsub:Specified subcircuit master `cvart' was not found.
    WARNING (SPECTRE-16462): SOAC_cvart_vspsub:Error in specification of subcircuit master. Assert is ignored.
    WARNING (SPECTRE-16460): SOAC_cvart_vbs:Specified subcircuit master `cvart' was not found.
        Further occurrences of this warning will be suppressed.
    WARNING (SPECTRE-16462): SOAC_cvart_vbs:Error in specification of subcircuit master. Assert is ignored.
        Further occurrences of this warning will be suppressed.
Notice from spectre during topology check.
    Only one connection to the following 3 nodes:
        MP1.psub!
        MP0.psub!
        MN0.psub!
Notice from spectre during initial setup.
    Multithreading is disabled due to the size of the design being too small.


Netlist title:
        // Generated for: spectre


Global user options:
         psfversion = 1.4.0
            vabstol = 1e-06
            iabstol = 1e-12
               temp = 27
           homotopy = 5
              limit = delta
         compatible = spice2
               gmin = 1e-12
             rforce = 1
           maxnotes = 5
           maxwarns = 5
             digits = 5
               cols = 80
             pivrel = 0.001
           sensfile = ../psf/sens.output
     checklimitdest = psf
     enable_pre_ver = yes
      ignorezerovar = yes
               save = allpub
             reltol = 0.0001
               tnom = 27
             scalem = 1
              scale = 1

Scoped user options:

Circuit inventory:
              nodes 10
            bsim3v3 3     
          capacitor 3     
            isource 3     
          modn_ahdl 1     
          modp_ahdl 2     
            vsource 2     

Analysis and control statement inventory:
                 dc 1     
               info 7     

Output statements:
             .probe 0     
           .measure 0     
               save 0     

Design checks inventory:
          paramtest 4     
             assert 175   


Notice from spectre during initial setup.
    APS enabled.
    72 warnings suppressed.

Time for parsing: CPU = 11.792 ms, elapsed = 634.799 ms.
Time accumulated: CPU = 400.27 ms, elapsed = 995.377 ms.
Peak resident memory used = 193 Mbytes.

~~~~~~~~~~~~~~~~~~~~~~
Pre-Simulation Summary
~~~~~~~~~~~~~~~~~~~~~~
   -   (APS) Multi-threading. The recommended number of threads is 1, consider adding +mt=1 on command line.
~~~~~~~~~~~~~~~~~~~~~~

******************
DC Analysis `dcOp'
******************

Notice from spectre during DC analysis `dcOp'.
    No checklimit analysis defined for asserts. A default checklimit analysis 'SpectreChecklimitAnal' has been created with all asserts enabled.


Opening the PSF file ../psf/dcOp.dc ...
Important parameter values:
    reltol = 100e-06
    abstol(V) = 1 uV
    abstol(I) = 1 pA
    temp = 27 C
    tnom = 27 C
    tempeffects = all
    gmindc = 1 pS
    rabsshort = 1 mOhm
Trying `homotopy = gmin'.
Matrix is singular (detected at `net3').
Homotopy: gmin, steps: 1
Trying `homotopy = source'.
Homotopy: source, steps: 8
Trying `homotopy = dptran'.
Matrix is singular (detected at `net3').
..........

Warning from spectre during DC analysis `dcOp'.
    WARNING (SPECTRE-17665): Number of homotopy steps exceeds maxsteps 10000. The DC solution may not be accurate. Extend maxsteps to get better accuracy if necessary.

Matrix is singular (detected at `net3').
..........

Warning from spectre during DC analysis `dcOp'.
    WARNING (SPECTRE-17665): Number of homotopy steps exceeds maxsteps 10000. The DC solution may not be accurate. Extend maxsteps to get better accuracy if necessary.

Homotopy: dptran, steps: 20100; maxsteps has been extended internally to assist DC convergence.
Trying `homotopy = ptran'.
Matrix is singular (detected at `net3').
Homotopy: ptran, steps: 0

Perform DC simulation with solver optimization

Warning from spectre during DC analysis `dcOp'.
    WARNING (SPECTRE-11001): Unable to find a pivot that is larger than absolute threshold.

Trying `homotopy = gmin'.
Matrix is singular (detected at `out').
Homotopy: gmin, steps: 1
Trying `homotopy = source'.

Warning from spectre during DC analysis `dcOp'.
    WARNING (SPECTRE-11001): Unable to find a pivot that is larger than absolute threshold.

Homotopy: source, steps: 8
Trying `homotopy = dptran'.
Matrix is singular (detected at `out').
.

Warning from spectre during DC analysis `dcOp'.
    WARNING (SPECTRE-11001): Unable to find a pivot that is larger than absolute threshold.

.........

Warning from spectre during DC analysis `dcOp'.
    WARNING (SPECTRE-17665): Number of homotopy steps exceeds maxsteps 10000. The DC solution may not be accurate. Extend maxsteps to get better accuracy if necessary.

Matrix is singular (detected at `out').
.

Warning from spectre during DC analysis `dcOp'.
    WARNING (SPECTRE-11001): Unable to find a pivot that is larger than absolute threshold.

.........

Warning from spectre during DC analysis `dcOp'.
    WARNING (SPECTRE-17665): Number of homotopy steps exceeds maxsteps 10000. The DC solution may not be accurate. Extend maxsteps to get better accuracy if necessary.

Homotopy: dptran, steps: 20100; maxsteps has been extended internally to assist DC convergence.
Trying `homotopy = ptran'.
Matrix is singular (detected at `out').
Homotopy: ptran, steps: 0

Error found by spectre during DC analysis `dcOp'.
    ERROR (SPECTRE-16080): Cannot print DC solution because DC did not converge. Resolve the convergence issue and rerun the simulation.
         

The values for those nodes that did not converge on the last Newton iteration are given below.  The manner in which the convergence criteria were not satisfied is also given.
            Failed test: | Value | > RelTol*Ref + AbsTol

 Top 10 Solution too large Convergence failure:
    V(net3) = 0 V
        update too large:  | -300 mV | > 0 V + 1 uV
    V(out) = 0 V
        update too large:  | -300 mV | > 0 V + 1 uV
 Top 10 Residue too large Convergence failure:
    V(net4) = 330 uV
        residue too large: | 20 pA | > 100 fA + 1 pA
    V(net1) = 0 V
        residue too large: | -20 pA | > 100 fA + 1 pA
    V(net3) = 0 V
        residue too large: | -10 pA | > 50 fA + 1 pA
    V(net2) = 0 V
        residue too large: | 10 pA | > 50 fA + 1 pA


The following set of suggestions might help you avoid convergence difficulties.  After you have a solution, write it to a nodeset file by using the `write' parameter, and read it back in on subsequent simulations by using the `readns' parameter.

 1. Enable diagnostic messages using the `+diagnose' option.

 2. Evaluate and resolve any notice, warning, or error messages.
 3. Perform sanity check on the parameter values by using the parameter range checker (use ``+param param-limits-file'' as a command line argument) and heed any warnings.  Print the minimum and maximum parameter value by using `info' analysis.  Ensure that the bounds given for instance, model, output, temperature-dependent, and operating-point (if possible) parameters are reasonable.

 4. Check the direction of both independent and dependent current sources. Convergence problems might result if current sources are connected such that they force current backward through diodes.
 5. Small floating resistors connected to high impedance nodes can cause convergence difficulties. Avoid very small floating resistors, particularly small parasitic resistors in semiconductors. Instead, use voltage sources or iprobes to measure current.
 6. If you have an estimate of what the solution should be, use nodeset statements or a nodeset file, and set as many nodes as possible.
 7. Use realistic device models. Check all component parameters, particularly nonlinear device model parameters, to ensure that they are reasonable.
 8. If simulating a bipolar analog circuit, ensure that the region parameter on all transistors and diodes is set correctly.
 9. Loosen tolerances, particularly absolute tolerances like `iabstol' (on options statement). If tolerances are set too tight, they might preclude convergence.
10. Increase the value of gmin (on options statement).
11. Use numeric pivoting in the sparse matrix factorization by setting `pivotdc=yes' (on options statement). Sometimes, it is also necessary to increase the pivot threshold to a value in the range of 0.1 to 0.5 by using `pivrel' (on options statement).
12. Try to simplify the nonlinear component models to avoid regions that might contribute to convergence problems in the model.
13. Divide the circuit into smaller pieces and simulate them individually. However, ensure that the results are close to what they would be if you had simulated the whole circuit.  Use the results to generate nodesets for the whole circuit.
14. Check the connections to ground. Convergence problems might result if no connections to ground. 
15. If all else fails, replace the DC analysis with a transient analysis and modify all the independent sources to start at zero and ramp to their DC values. Run transient analysis well beyond the time when all the sources have reached their final value (remember that transient analysis is very cheap when none of the signals in the circuit are changing) and write the final point to a nodeset file. To make transient analysis more efficient, set the integration method to backward Euler (`method=euler') and loosen the local truncation error criteria by increasing `lteratio', say to 50. Occasionally, this approach fails or is very slow because the circuit contains an oscillator.  Often, for finding the dc solution, the oscillation can be eliminated for by setting the minimum capacitance from each node to ground (`cmin') to a large value.


Maximum value achieved for any signal of each quantity: 
DC simulation time: CPU = 6.82218 s, elapsed = 6.82337 s.
Analysis `dcOp' was terminated prematurely due to an error.
dcOpInfo: writing operating point information to rawfile.

Opening the PSF file ../psf/dcOpInfo.info ...

Error found by spectre during DC analysis, during info `dcOpInfo'.
    ERROR (SPECTRE-16041): The `dcOpInfo' analysis is skipped due to inability to compute operating point. Run 'mmsimpack' (see mmsimpack -h for detailed usage information) to package the netlist and log files as a compressed tar file. Then, contact your Cadence representative or submit a service request via Cadence Online Support, including the tar file and any other information that could help identify the problem.

Analysis `dcOpInfo' was terminated prematurely due to an error.
modelParameter: writing model parameter values to rawfile.

Opening the PSF file ../psf/modelParameter.info ...
element: writing instance parameter values to rawfile.

Opening the PSF file ../psf/element.info ...
outputParameter: writing output parameter values to rawfile.

Opening the PSF file ../psf/outputParameter.info ...
designParamVals: writing netlist parameters to rawfile.

Opening the PSFASCII file ../psf/designParamVals.info ...
primitives: writing primitives to rawfile.

Opening the PSFASCII file ../psf/primitives.info.primitives ...
subckts: writing subcircuits to rawfile.

Opening the PSFASCII file ../psf/subckts.info.subckts ...
Licensing Information:
Lic Summary:
[08:40:09.099419] Cdslmd servers:3000@lic08.ug.kth.se:29000@lic06.ug.kth.se
[08:40:09.623752] Feature usage summary:
[08:40:09.623753] Virtuoso_Multi_mode_Simulation


Aggregate audit (8:40:09 AM, Tue Mar 17, 2026):
Time used: CPU = 7.27 s, elapsed = 7.88 s, util. = 92.3%.
Time spent in licensing: elapsed = 49.2 ms.
Peak memory used = 200 Mbytes.
Simulation started at: 8:40:01 AM, Tue Mar 17, 2026, ended at: 8:40:09 AM, Tue Mar 17, 2026, with elapsed time (wall clock): 7.88 s.
spectre completes with 2 errors, 25 warnings, and 7 notices.
