
Spectre (R) Circuit Simulator
Version 24.1.0.288.isr5 64bit -- 3 Apr 2025
Copyright (C) 1989-2025 Cadence Design Systems, Inc. All rights reserved worldwide. Cadence and Spectre are registered trademarks of Cadence Design Systems, Inc. All others are the property of their respective holders.

Includes RSA BSAFE(R) Cryptographic or Security Protocol Software from RSA Security, Inc.

User: davidevi   Host: il2244vt26_davidevi   HostID: 11AC2C00   PID: 527211
Memory  available: 3.0703 TB  physical: 3.2467 TB
Linux   : Rocky Linux release 8.10 (Green Obsidian)
CPU Type: Intel(R) Xeon(R) CPU E7-8857 v2 @ 3.00GHz
        Socket: Processors [Frequency]
        0:       0 [2999.9],  1 [2999.9],  2 [1300.0],  3 [2999.9],  4 [1200.0]
                 5 [2400.0],  6 [1200.0],  7 [3600.0],  8 [3600.0],  9 [2999.9]
                10 [1200.0], 11 [3600.0]
        1:      12 [3399.9], 13 [3399.9], 14 [3399.9], 15 [3600.0], 16 [2100.0]
                17 [3600.0], 18 [3600.0], 19 [3600.0], 20 [3600.0], 21 [3600.0]
                22 [3600.0], 23 [3399.8]
        2:      24 [1200.0], 25 [3600.0], 26 [3600.0], 27 [2999.9], 28 [3600.0]
                29 [2999.9], 30 [3600.0], 31 [2999.9], 32 [3100.0], 33 [3600.0]
                34 [2800.0], 35 [1200.0]
        3:      36 [2999.9], 37 [2800.0], 38 [2996.6], 39 [3600.0], 40 [2999.9]
                41 [3600.0], 42 [3600.0], 43 [3600.0], 44 [3400.0], 45 [3600.0]
                46 [3600.0], 47 [3600.0]
        
System load averages (1min, 5min, 15min) : 24.1 %, 20.0 %, 18.4 %
HPC is enabled


Simulating `input.scs' on il2244vt26_davidevi at 1:15:33 PM, Thur Mar 19, 2026 (process id: 527211).
Current working directory: /home/davidevi/Desktop/myproject/Sim/VGA/VGA_1_tb/adexl/results/data/Interactive.33/1/VGA:VGA_1_tb:2/netlist
Command line:
    /opt/tools/cadence/installs/SPECTRE241/tools/bin/spectre -64  \
        input.scs +escchars +log ../psf/spectre.out -format psfbin  \
        +rtsf -raw ../psf +aps +mt +lqtimeout 900 -maxw 5 -maxn 5  \
        +param /opt/pdk/ams/410/spectre/ams_range.lmts -env ade  \
        -ahdllibdir  \
        /home/davidevi/Desktop/myproject/Sim/VGA/VGA_1_tb/adexl/results/data/Interactive.33/sharedData/Job79/ahdl/input.ahdlSimDB  \
        +logstatus  \
        +adespetkn=0001089D13A302B663E41FB550AF0DF415A679A322D5069144BF588C12F604E07EF416DC01A319B562BB63D35BCB1D8245A30497268D25E706AA13C46EC84F9266FA79D15D9175FF34986BDD0AF002BA50FD7FD707E002A700AC1C821CF642EB0EAF79D12CF874D3349879D118F874D33498106AEE0B82205D230000367C

Simulation Id: iQoAOt22Q4Mq8wRb
Licensing Information:
[13:15:33.121730] Configured Lic search path (24.01-s002): 3000@lic08.ug.kth.se:29000@lic06.ug.kth.se

Licensing Information:
[13:15:33.248826] Periodic Lic check successful

Loading /opt/tools/cadence/installs/SPECTRE241/tools.lnx86/cmi/lib/64bit/5.0/libinfineon_sh.so ...
Loading /opt/tools/cadence/installs/SPECTRE241/tools.lnx86/cmi/lib/64bit/5.0/libphilips_I_sh.so ...
Loading /opt/tools/cadence/installs/SPECTRE241/tools.lnx86/cmi/lib/64bit/5.0/libphilips_sh.so ...
Loading /opt/tools/cadence/installs/SPECTRE241/tools.lnx86/cmi/lib/64bit/5.0/libsparam_sh.so ...
Loading /opt/tools/cadence/installs/SPECTRE241/tools.lnx86/cmi/lib/64bit/5.0/libstmodels_sh.so ...

Warning from spectre.
    WARNING (SPECTRE-691): This CPU processor does not support x86 advanced vector extensions instructions. This may affect math operations and slow down the simulation.

Reading file:  /home/davidevi/Desktop/myproject/Sim/VGA/VGA_1_tb/adexl/results/data/Interactive.33/1/VGA:VGA_1_tb:2/netlist/input.scs
Reading file:  /opt/pdk/ams/410/spectre/ams_range.lmts

Warning from spectre during read of parameter soft limits file `/opt/pdk/ams/410/spectre/ams_range.lmts', during circuit read-in.
    WARNING (SPECTRE-8360): line 1511: `ac' is an undefined primitive device.
    WARNING (SPECTRE-8360): line 1512: `ac' is an undefined primitive device.
    WARNING (SPECTRE-8360): line 1513: `ac' is an undefined primitive device.
    WARNING (SPECTRE-8360): line 1514: `ac' is an undefined primitive device.
    WARNING (SPECTRE-8360): line 1515: `ac' is an undefined primitive device.
        Further occurrences of this warning will be suppressed.

Reading file:  /opt/tools/cadence/installs/SPECTRE241/tools.lnx86/spectre/etc/configs/spectre.cfg
Reading file:  /opt/pdk/ams/410/spectre/c35/soac/soac.scs
Reading file:  /opt/pdk/ams/410/spectre/c35/soac/processOption.scs
Reading file:  /opt/pdk/ams/410/spectre/c35/soac/process.scs
Reading file:  /opt/pdk/ams/410/spectre/c35/soac/soac.va

Warning from spectre during AHDL read-in.
    WARNING (VACOMP-2435): The environment variable CDS_AHDLCMI_ENABLE is no longer supported. Therefore, the simulator will use the default compiled C code flow.

Reading link:  /opt/tools/cadence/installs/SPECTRE241/tools.lnx86/spectre/etc/ahdl/constants.h
Reading file:  /opt/tools/cadence/installs/SPECTRE241/tools.lnx86/spectre/etc/ahdl/constants.vams
Reading link:  /opt/tools/cadence/installs/SPECTRE241/tools.lnx86/spectre/etc/ahdl/discipline.h
Reading file:  /opt/tools/cadence/installs/SPECTRE241/tools.lnx86/spectre/etc/ahdl/disciplines.vams
Reading file:  /opt/pdk/ams/410/spectre/c35/processOption/C35B4C3.scs
Reading file:  /opt/pdk/ams/410/spectre/c35/soac/cmos53.scs
Reading file:  /opt/pdk/ams/410/spectre/c35/soac/res.scs
Reading file:  /opt/pdk/ams/410/spectre/c35/soac/cap.scs
Reading file:  /opt/pdk/ams/410/spectre/c35/soac/bip.scs
Reading file:  /opt/pdk/ams/410/spectre/c35/soac/ind.scs
Reading file:  /opt/pdk/ams/410/spectre/c35/soac/esddiode.scs
Time for NDB Parsing: CPU = 163.982 ms, elapsed = 334.85 ms.
Time accumulated: CPU = 367.778 ms, elapsed = 334.854 ms.
Peak resident memory used = 175 Mbytes.

Existing shared object for module modn_ahdl is up to date.
Installed compiled interface for modn_ahdl.
Existing shared object for module modp_ahdl is up to date.
Installed compiled interface for modp_ahdl.
Existing shared object for module cpoly_ahdl is up to date.
Installed compiled interface for cpoly_ahdl.
Time for Elaboration: CPU = 42.655 ms, elapsed = 44.205 ms.
Time accumulated: CPU = 410.602 ms, elapsed = 379.227 ms.
Peak resident memory used = 187 Mbytes.


Notice from spectre during hierarchy flattening.
    The value 'psf' specified for the 'checklimitdest' option will no longer be supported in future releases. Use 'spectre -h' to see other recommended values for the 'checklimitdest' option.


*****************************************************************************************
* 
* INFO: AMS_processOption = C35B4C3
* 
* INFO: Valid Modules  PIP VG5 HIRES
* 
*****************************************************************************************


Notice from spectre in `VGA_1':`I0', during hierarchy flattening.
    I0.R1 of VGA_1: `r' has the unusually large value of 500 GOhm.


Time for EDB Visiting: CPU = 7.321 ms, elapsed = 7.33185 ms.
Time accumulated: CPU = 418.212 ms, elapsed = 386.845 ms.
Peak resident memory used = 189 Mbytes.

Loading /opt/tools/cadence/installs/SPECTRE241/tools.lnx86/mdl/lib/64bit/libSpectreEH_sh.so ...

Warning from spectre during initial setup.
    WARNING (SPECTRE-16460): SOAC_cvarm_vspsub:Specified subcircuit master `cvarm' was not found.
    WARNING (SPECTRE-16462): SOAC_cvarm_vspsub:Error in specification of subcircuit master. Assert is ignored.
    WARNING (SPECTRE-16460): SOAC_cvarm_vbs:Specified subcircuit master `cvarm' was not found.
    WARNING (SPECTRE-16462): SOAC_cvarm_vbs:Error in specification of subcircuit master. Assert is ignored.
    WARNING (SPECTRE-16460): SOAC_cvarm_vgb:Specified subcircuit master `cvarm' was not found.
    WARNING (SPECTRE-16462): SOAC_cvarm_vgb:Error in specification of subcircuit master. Assert is ignored.
    WARNING (SPECTRE-16460): SOAC_cvart_vspsub:Specified subcircuit master `cvart' was not found.
    WARNING (SPECTRE-16462): SOAC_cvart_vspsub:Error in specification of subcircuit master. Assert is ignored.
    WARNING (SPECTRE-16460): SOAC_cvart_vbs:Specified subcircuit master `cvart' was not found.
        Further occurrences of this warning will be suppressed.
    WARNING (SPECTRE-16462): SOAC_cvart_vbs:Error in specification of subcircuit master. Assert is ignored.
        Further occurrences of this warning will be suppressed.
Notice from spectre during topology check.
    Only one connection to the following 36 nodes:
        I0.MN6.psub!
        I0.MN5.psub!
        I0.MN4.psub!
        I0.MN3.psub!
        I0.MN2.psub!
        Further occurrences of this notice will be suppressed.
Notice from spectre during initial setup.
    Multithreading is disabled due to the size of the design being too small.


Netlist title:
        // Point Netlist Generated on: Mar 19 13:15:31 2026


Global user options:
         psfversion = 1.4.0
            vabstol = 1e-06
            iabstol = 1e-12
               temp = 27
           homotopy = 5
              limit = delta
         compatible = spice2
               gmin = 1e-12
             rforce = 1
           maxnotes = 5
           maxwarns = 5
             digits = 5
               cols = 80
             pivrel = 0.001
           sensfile = ../psf/sens.output
     checklimitdest = psf
     enable_pre_ver = yes
      ignorezerovar = yes
               save = allpub
             reltol = 0.0001
               tnom = 27
             scalem = 1
              scale = 1

Scoped user options:

Circuit inventory:
              nodes 76
            bsim3v3 30    
          capacitor 36    
         cpoly_ahdl 17    
            isource 1     
          modn_ahdl 19    
          modp_ahdl 11    
           resistor 3     
            vsource 8     

Analysis and control statement inventory:
               info 6     
                 xf 1     

Output statements:
             .probe 0     
           .measure 0     
               save 0     

Design checks inventory:
          paramtest 48    
             assert 175   


Notice from spectre during initial setup.
    APS enabled.
    1 notice suppressed.
    72 warnings suppressed.

Time for parsing: CPU = 17.296 ms, elapsed = 593.991 ms.
Time accumulated: CPU = 435.655 ms, elapsed = 980.981 ms.
Peak resident memory used = 195 Mbytes.

~~~~~~~~~~~~~~~~~~~~~~
Pre-Simulation Summary
~~~~~~~~~~~~~~~~~~~~~~
   -   (APS) Multi-threading. The recommended number of threads is 1, consider adding +mt=1 on command line.
~~~~~~~~~~~~~~~~~~~~~~

***********************************************************
Transfer Function Analysis `xf': freq = (10 mHz -> 100 MHz)
***********************************************************

Notice from spectre during DC analysis, during XF analysis `xf'.
    No checklimit analysis defined for asserts. A default checklimit analysis 'SpectreChecklimitAnal' has been created with all asserts enabled.
Notice from spectre during DC analysis, during XF analysis `xf'.
    Bad pivoting is found during DC analysis. Option dc_pivot_check=yes is recommended for possible improvement of convergence.
Warning from spectre during check, during DC analysis, during XF analysis `xf'.
    WARNING (CMI-2943): Parameter checks have been ignored because the valid value for parameter 'trise' could not be found in 'C0'.
    WARNING (CMI-2943): Parameter checks have been ignored because the valid value for parameter 'trise' could not be found in 'C1'.
    WARNING (CMI-2943): Parameter checks have been ignored because the valid value for parameter 'trise' could not be found in 'I0.C8<0>_turbo_m4.C1'.
    WARNING (CMI-2943): Parameter checks have been ignored because the valid value for parameter 'trise' could not be found in 'I0.C9<0>_turbo_m8.C1'.
    WARNING (CMI-2943): Parameter checks have been ignored because the valid value for parameter 'trise' could not be found in 'I0.C3.C1'.
        Further occurrences of this warning will be suppressed.

Convergence achieved in 22 iterations.
DC simulation time: CPU = 3.531 ms, elapsed = 3.53193 ms.

Opening the PSF file ../psf/xf.xf ...
    xf: freq = 25.12 mHz      (4 %), step = 9.27 mHz        (2 %)
    xf: freq = 39.81 mHz      (6 %), step = 14.69 mHz       (2 %)
    xf: freq = 63.1 mHz       (8 %), step = 23.29 mHz       (2 %)
    xf: freq = 100 mHz       (10 %), step = 36.9 mHz        (2 %)
    xf: freq = 158.5 mHz     (12 %), step = 58.49 mHz       (2 %)
    xf: freq = 251.2 mHz     (14 %), step = 92.7 mHz        (2 %)
    xf: freq = 398.1 mHz     (16 %), step = 146.9 mHz       (2 %)
    xf: freq = 631 mHz       (18 %), step = 232.9 mHz       (2 %)
    xf: freq = 1 Hz          (20 %), step = 369 mHz         (2 %)
    xf: freq = 1.585 Hz      (22 %), step = 584.9 mHz       (2 %)
    xf: freq = 2.512 Hz      (24 %), step = 927 mHz         (2 %)
    xf: freq = 3.981 Hz      (26 %), step = 1.469 Hz        (2 %)
    xf: freq = 6.31 Hz       (28 %), step = 2.329 Hz        (2 %)
    xf: freq = 10 Hz         (30 %), step = 3.69 Hz         (2 %)
    xf: freq = 15.85 Hz      (32 %), step = 5.849 Hz        (2 %)
    xf: freq = 25.12 Hz      (34 %), step = 9.27 Hz         (2 %)
    xf: freq = 39.81 Hz      (36 %), step = 14.69 Hz        (2 %)
    xf: freq = 63.1 Hz       (38 %), step = 23.29 Hz        (2 %)
    xf: freq = 100 Hz        (40 %), step = 36.9 Hz         (2 %)
    xf: freq = 158.5 Hz      (42 %), step = 58.49 Hz        (2 %)
    xf: freq = 251.2 Hz      (44 %), step = 92.7 Hz         (2 %)
    xf: freq = 398.1 Hz      (46 %), step = 146.9 Hz        (2 %)
    xf: freq = 631 Hz        (48 %), step = 232.9 Hz        (2 %)
    xf: freq = 1 kHz         (50 %), step = 369 Hz          (2 %)
    xf: freq = 1.585 kHz     (52 %), step = 584.9 Hz        (2 %)
    xf: freq = 2.512 kHz     (54 %), step = 927 Hz          (2 %)
    xf: freq = 3.981 kHz     (56 %), step = 1.469 kHz       (2 %)
    xf: freq = 6.31 kHz      (58 %), step = 2.329 kHz       (2 %)
    xf: freq = 10 kHz        (60 %), step = 3.69 kHz        (2 %)
    xf: freq = 15.85 kHz     (62 %), step = 5.849 kHz       (2 %)
    xf: freq = 25.12 kHz     (64 %), step = 9.27 kHz        (2 %)
    xf: freq = 39.81 kHz     (66 %), step = 14.69 kHz       (2 %)
    xf: freq = 63.1 kHz      (68 %), step = 23.29 kHz       (2 %)
    xf: freq = 100 kHz       (70 %), step = 36.9 kHz        (2 %)
    xf: freq = 158.5 kHz     (72 %), step = 58.49 kHz       (2 %)
    xf: freq = 251.2 kHz     (74 %), step = 92.7 kHz        (2 %)
    xf: freq = 398.1 kHz     (76 %), step = 146.9 kHz       (2 %)
    xf: freq = 631 kHz       (78 %), step = 232.9 kHz       (2 %)
    xf: freq = 1 MHz         (80 %), step = 369 kHz         (2 %)
    xf: freq = 1.585 MHz     (82 %), step = 584.9 kHz       (2 %)
    xf: freq = 2.512 MHz     (84 %), step = 927 kHz         (2 %)
    xf: freq = 3.981 MHz     (86 %), step = 1.469 MHz       (2 %)
    xf: freq = 6.31 MHz      (88 %), step = 2.329 MHz       (2 %)
    xf: freq = 10 MHz        (90 %), step = 3.69 MHz        (2 %)
    xf: freq = 15.85 MHz     (92 %), step = 5.849 MHz       (2 %)
    xf: freq = 25.12 MHz     (94 %), step = 9.27 MHz        (2 %)
    xf: freq = 39.81 MHz     (96 %), step = 14.69 MHz       (2 %)
    xf: freq = 63.1 MHz      (98 %), step = 23.29 MHz       (2 %)
    xf: freq = 100 MHz      (100 %), step = 36.9 MHz        (2 %)
Accumulated DC solution time =            3.58987 ms.
Intrinsic xf analysis time =              10.9932 ms.
Total time required for xf analysis `xf': CPU = 14.901 ms, elapsed = 15.6319 ms, util. = 95.3%.
Time accumulated: CPU = 472.206 ms, elapsed = 1.01891 s.
Peak resident memory used = 200 Mbytes.


Notice from spectre.
    12 warnings suppressed.

modelParameter: writing model parameter values to rawfile.

Opening the PSF file ../psf/modelParameter.info ...
element: writing instance parameter values to rawfile.

Opening the PSF file ../psf/element.info ...
outputParameter: writing output parameter values to rawfile.

Opening the PSF file ../psf/outputParameter.info ...
designParamVals: writing netlist parameters to rawfile.

Opening the PSFASCII file ../psf/designParamVals.info ...
primitives: writing primitives to rawfile.

Opening the PSFASCII file ../psf/primitives.info.primitives ...
subckts: writing subcircuits to rawfile.

Opening the PSFASCII file ../psf/subckts.info.subckts ...
Licensing Information:
Lic Summary:
[13:15:34.103433] Cdslmd servers:3000@lic08.ug.kth.se:29000@lic06.ug.kth.se
[13:15:34.103473] Feature usage summary:
[13:15:34.103474] Virtuoso_Multi_mode_Simulation


Aggregate audit (1:15:34 PM, Thur Mar 19, 2026):
Time used: CPU = 495 ms, elapsed = 1.05 s, util. = 47.2%.
Time spent in licensing: elapsed = 51.1 ms.
Peak memory used = 201 Mbytes.
Simulation started at: 1:15:33 PM, Thur Mar 19, 2026, ended at: 1:15:34 PM, Thur Mar 19, 2026, with elapsed time (wall clock): 1.05 s.
spectre completes with 0 errors, 22 warnings, and 10 notices.


********* LOG ENDS **************
**                             **
