
Spectre (R) Circuit Simulator
Version 24.1.0.288.isr5 64bit -- 3 Apr 2025
Copyright (C) 1989-2025 Cadence Design Systems, Inc. All rights reserved worldwide. Cadence and Spectre are registered trademarks of Cadence Design Systems, Inc. All others are the property of their respective holders.

Includes RSA BSAFE(R) Cryptographic or Security Protocol Software from RSA Security, Inc.

User: davidevi   Host: il2244vt26_davidevi   HostID: 11AC2C00   PID: 432909
Memory  available: 3.0772 TB  physical: 3.2467 TB
Linux   : Rocky Linux release 8.10 (Green Obsidian)
CPU Type: Intel(R) Xeon(R) CPU E7-8857 v2 @ 3.00GHz
        Socket: Processors [Frequency]
        0:       0 [2999.9],  1 [1200.0],  2 [1200.0],  3 [2999.9],  4 [1200.0]
                 5 [1200.0],  6 [1200.0],  7 [1200.0],  8 [1200.0],  9 [3200.0]
                10 [974.3], 11 [2900.0]
        1:      12 [1200.0], 13 [3600.0], 14 [3400.0], 15 [2999.9], 16 [3400.0]
                17 [1200.0], 18 [1200.0], 19 [3600.0], 20 [3600.0], 21 [2400.0]
                22 [1400.0], 23 [1200.0]
        2:      24 [1200.0], 25 [2400.0], 26 [2999.9], 27 [1200.0], 28 [3600.0]
                29 [1200.0], 30 [3600.0], 31 [1200.0], 32 [2999.9], 33 [1200.0]
                34 [1200.0], 35 [3600.0]
        3:      36 [2999.9], 37 [1200.0], 38 [1200.0], 39 [2999.9], 40 [1200.0]
                41 [1200.0], 42 [1200.0], 43 [1200.0], 44 [2700.0], 45 [1200.0]
                46 [1200.0], 47 [1200.0]
        
System load averages (1min, 5min, 15min) : 12.7 %, 12.4 %, 12.7 %
HPC is enabled


Simulating `input.scs' on il2244vt26_davidevi at 9:04:16 AM, Mon Mar 16, 2026 (process id: 432909).
Current working directory: /home/davidevi/Desktop/myproject/Sim/VGA_IDEAL/spectre/schematic/netlist
Command line:
    /opt/tools/cadence/installs/SPECTRE241/tools/bin/spectre -64  \
        input.scs +escchars +log ../psf/spectre.out -format psfbin  \
        +rtsf -raw ../psf +aps +mt +lqtimeout 900 -maxw 5 -maxn 5  \
        +param /opt/pdk/ams/410/spectre/ams_range.lmts -env ade  \
        +adespetkn=adespe

Licensing Information:
[09:04:16.121762] Configured Lic search path (24.01-s002): 3000@lic08.ug.kth.se:29000@lic06.ug.kth.se

Licensing Information:
[09:04:16.439595] Periodic Lic check successful

Loading /opt/tools/cadence/installs/SPECTRE241/tools.lnx86/cmi/lib/64bit/5.0/libinfineon_sh.so ...
Loading /opt/tools/cadence/installs/SPECTRE241/tools.lnx86/cmi/lib/64bit/5.0/libphilips_I_sh.so ...
Loading /opt/tools/cadence/installs/SPECTRE241/tools.lnx86/cmi/lib/64bit/5.0/libphilips_sh.so ...
Loading /opt/tools/cadence/installs/SPECTRE241/tools.lnx86/cmi/lib/64bit/5.0/libsparam_sh.so ...
Loading /opt/tools/cadence/installs/SPECTRE241/tools.lnx86/cmi/lib/64bit/5.0/libstmodels_sh.so ...

Warning from spectre.
    WARNING (SPECTRE-691): This CPU processor does not support x86 advanced vector extensions instructions. This may affect math operations and slow down the simulation.

Reading file:  /home/davidevi/Desktop/myproject/Sim/VGA_IDEAL/spectre/schematic/netlist/input.scs
Reading file:  /opt/pdk/ams/410/spectre/ams_range.lmts

Warning from spectre during read of parameter soft limits file `/opt/pdk/ams/410/spectre/ams_range.lmts', during circuit read-in.
    WARNING (SPECTRE-8360): line 1511: `ac' is an undefined primitive device.
    WARNING (SPECTRE-8360): line 1512: `ac' is an undefined primitive device.
    WARNING (SPECTRE-8360): line 1513: `ac' is an undefined primitive device.
    WARNING (SPECTRE-8360): line 1514: `ac' is an undefined primitive device.
    WARNING (SPECTRE-8360): line 1515: `ac' is an undefined primitive device.
        Further occurrences of this warning will be suppressed.

Reading file:  /opt/tools/cadence/installs/SPECTRE241/tools.lnx86/spectre/etc/configs/spectre.cfg
Reading file:  /opt/pdk/ams/410/spectre/c35/soac/soac.scs
Reading file:  /opt/pdk/ams/410/spectre/c35/soac/processOption.scs
Reading file:  /opt/pdk/ams/410/spectre/c35/soac/process.scs
Reading file:  /opt/pdk/ams/410/spectre/c35/soac/soac.va

Warning from spectre during AHDL read-in.
    WARNING (VACOMP-2435): The environment variable CDS_AHDLCMI_ENABLE is no longer supported. Therefore, the simulator will use the default compiled C code flow.

Reading link:  /opt/tools/cadence/installs/SPECTRE241/tools.lnx86/spectre/etc/ahdl/constants.h
Reading file:  /opt/tools/cadence/installs/SPECTRE241/tools.lnx86/spectre/etc/ahdl/constants.vams
Reading link:  /opt/tools/cadence/installs/SPECTRE241/tools.lnx86/spectre/etc/ahdl/discipline.h
Reading file:  /opt/tools/cadence/installs/SPECTRE241/tools.lnx86/spectre/etc/ahdl/disciplines.vams
Reading file:  /opt/pdk/ams/410/spectre/c35/processOption/C35B4C3.scs
Reading file:  /opt/pdk/ams/410/spectre/c35/soac/cmos53.scs
Reading file:  /opt/pdk/ams/410/spectre/c35/soac/res.scs
Reading file:  /opt/pdk/ams/410/spectre/c35/soac/cap.scs
Reading file:  /opt/pdk/ams/410/spectre/c35/soac/bip.scs
Reading file:  /opt/pdk/ams/410/spectre/c35/soac/ind.scs
Reading file:  /opt/pdk/ams/410/spectre/c35/soac/esddiode.scs
Time for NDB Parsing: CPU = 172.601 ms, elapsed = 346.055 ms.
Time accumulated: CPU = 359.709 ms, elapsed = 346.059 ms.
Peak resident memory used = 176 Mbytes.

Existing shared object for module modp_ahdl is up to date.
Installed compiled interface for modp_ahdl.
Existing shared object for module modn_ahdl is up to date.
Installed compiled interface for modn_ahdl.
Time for Elaboration: CPU = 35.782 ms, elapsed = 38.5032 ms.
Time accumulated: CPU = 395.677 ms, elapsed = 384.746 ms.
Peak resident memory used = 186 Mbytes.


Notice from spectre during hierarchy flattening.
    The value 'psf' specified for the 'checklimitdest' option will no longer be supported in future releases. Use 'spectre -h' to see other recommended values for the 'checklimitdest' option.


*****************************************************************************************
* 
* INFO: AMS_processOption = C35B4C3
* 
* INFO: Valid Modules  PIP VG5 HIRES
* 
*****************************************************************************************


Time for EDB Visiting: CPU = 3.525 ms, elapsed = 3.52597 ms.
Time accumulated: CPU = 399.373 ms, elapsed = 388.441 ms.
Peak resident memory used = 188 Mbytes.

Loading /opt/tools/cadence/installs/SPECTRE241/tools.lnx86/mdl/lib/64bit/libSpectreEH_sh.so ...

Warning from spectre during initial setup.
    WARNING (SPECTRE-16460): SOAC_cvarm_vspsub:Specified subcircuit master `cvarm' was not found.
    WARNING (SPECTRE-16462): SOAC_cvarm_vspsub:Error in specification of subcircuit master. Assert is ignored.
    WARNING (SPECTRE-16460): SOAC_cvarm_vbs:Specified subcircuit master `cvarm' was not found.
    WARNING (SPECTRE-16462): SOAC_cvarm_vbs:Error in specification of subcircuit master. Assert is ignored.
    WARNING (SPECTRE-16460): SOAC_cvarm_vgb:Specified subcircuit master `cvarm' was not found.
    WARNING (SPECTRE-16462): SOAC_cvarm_vgb:Error in specification of subcircuit master. Assert is ignored.
    WARNING (SPECTRE-16460): SOAC_cvart_vspsub:Specified subcircuit master `cvart' was not found.
    WARNING (SPECTRE-16462): SOAC_cvart_vspsub:Error in specification of subcircuit master. Assert is ignored.
    WARNING (SPECTRE-16460): SOAC_cvart_vbs:Specified subcircuit master `cvart' was not found.
        Further occurrences of this warning will be suppressed.
    WARNING (SPECTRE-16462): SOAC_cvart_vbs:Error in specification of subcircuit master. Assert is ignored.
        Further occurrences of this warning will be suppressed.
Notice from spectre during initial setup.
    Ignorevaref=yes is ignored since all nodes are connected to Verilog-A modules.
Notice from spectre during topology check.
    Only one connection to the following 3 nodes:
        MP2.psub!
        MP1.psub!
        MN3.psub!
Notice from spectre during initial setup.
    Multithreading is disabled due to the size of the design being too small.


Netlist title:
        // Generated for: spectre


Global user options:
         psfversion = 1.4.0
            vabstol = 1e-06
            iabstol = 1e-12
               temp = 27
           homotopy = 5
              limit = delta
         compatible = spice2
               gmin = 1e-12
             rforce = 1
           maxnotes = 5
           maxwarns = 5
             digits = 5
               cols = 80
             pivrel = 0.001
           sensfile = ../psf/sens.output
     checklimitdest = psf
     enable_pre_ver = yes
      ignorezerovar = yes
               save = allpub
             reltol = 0.0001
               tnom = 27
             scalem = 1
              scale = 1

Scoped user options:

Circuit inventory:
              nodes 9
            bsim3v3 3     
          capacitor 3     
            isource 1     
          modn_ahdl 1     
          modp_ahdl 2     
            vsource 2     

Analysis and control statement inventory:
                 ac 1     
                 dc 1     
               info 8     
               tran 1     

Output statements:
             .probe 0     
           .measure 0     
               save 0     

Design checks inventory:
          paramtest 4     
             assert 175   


Notice from spectre during initial setup.
    APS enabled.
    72 warnings suppressed.

Time for parsing: CPU = 13.879 ms, elapsed = 633.097 ms.
Time accumulated: CPU = 413.364 ms, elapsed = 1.02165 s.
Peak resident memory used = 194 Mbytes.

~~~~~~~~~~~~~~~~~~~~~~
Pre-Simulation Summary
~~~~~~~~~~~~~~~~~~~~~~
   -   (APS) Multi-threading. The recommended number of threads is 1, consider adding +mt=1 on command line.
~~~~~~~~~~~~~~~~~~~~~~

******************
DC Analysis `dcOp'
******************

Notice from spectre during DC analysis `dcOp'.
    No checklimit analysis defined for asserts. A default checklimit analysis 'SpectreChecklimitAnal' has been created with all asserts enabled.


Opening the PSF file ../psf/dcOp.dc ...
Important parameter values:
    reltol = 100e-06
    abstol(V) = 1 uV
    abstol(I) = 1 pA
    temp = 27 C
    tnom = 27 C
    tempeffects = all
    gmindc = 1 pS
    rabsshort = 1 mOhm
Trying `homotopy = gmin'.
Continuation method failed. Step size is too small.
Homotopy: gmin, steps: 49
Trying `homotopy = source'.
Homotopy: source, steps: 8
Trying `homotopy = dptran'..
Homotopy: dptran, steps: 98

Notice from spectre during DC analysis `dcOp'.
    Bad pivoting is found during DC analysis. Option dc_pivot_check=yes is recommended for possible improvement of convergence.
Warning from spectre during DC analysis `dcOp'.
    WARNING (CMI-2139): MP1: The bulk-drain junction current exceeds `imelt'.  The results computed by Spectre may be inaccurate because the junction current model has been linearized.
    WARNING (CMI-2144): MP1: The bulk-drain junction current exceeds `imax'.
SOAC: MN3.soac_m1       modn V(G,S): LEAVING@  0us ;
SOAC: MN3.soac_m1       modn V(G,B): LEAVING@  0us ;
SOAC: MP1.soac_m1       modp V(G,S): LEAVING@  0us ;
NOTE: MP1.soac_m1 V(D)>V(S) => Pins swapped. Electrical pins checked ;
SOAC: MP1.soac_m1       modp V(D,S): LEAVING@  0us ;
NOTE: MP1.soac_m1 V(D)>V(S) => Pins swapped. Electrical pins checked ;
SOAC: MP1.soac_m1       modp V(D,B): FORWARD_DIODE@ 0us ;
SOAC: MP1.soac_m1       modp V(S,B): FORWARD_DIODE@ 0us ;
SOAC: MP2.soac_m1       modp V(G,S): LEAVING@  0us ;
SOAC: MP2.soac_m1       modp V(D,S): LEAVING@  0us ;
SOAC: MP2.soac_m1       modp V(D,B): LEAVING@  0us ;
SOAC: MP2.soac_m1       modp V(S,B): FORWARD_DIODE@ 0us ;

Maximum value achieved for any signal of each quantity: 
V: V(net4) = 149.7 V
I: I(V0:p) = 128.8 aA
Maximum value of each quantity, excluding dangling current sources:
V: V(MP2:int_d) = 149 V
I: I(V0:p) = 128.8 aA

Warning from spectre during check, during DC analysis `dcOp'.
    WARNING (CMI-2943): Parameter checks have been ignored because the valid value for parameter 'trise' could not be found in 'C0'.
    WARNING (CMI-2943): Parameter checks have been ignored because the valid value for parameter 'trise' could not be found in 'C1'.
    WARNING (CMI-2943): Parameter checks have been ignored because the valid value for parameter 'trise' could not be found in 'C2'.

Convergence achieved in 2414 iterations.

Opening the PSF file ../psf/dcOpViolations.violations ...
DC simulation time: CPU = 234.274 ms, elapsed = 242.282 ms.
Total time required for dc analysis `dcOp': CPU = 234.398 ms, elapsed = 242.386 ms, util. = 96.7%.
Time accumulated: CPU = 672.03 ms, elapsed = 1.28923 s.
Peak resident memory used = 203 Mbytes.

dcOpInfo: writing operating point information to rawfile.

Opening the PSF file ../psf/dcOpInfo.info ...

*************************************************
Transient Analysis `tran': time = (0 s -> 500 us)
*************************************************

Warning from spectre during IC analysis, during transient analysis `tran'.
    WARNING (CMI-2139): MP1: The bulk-drain junction current exceeds `imelt'.  The results computed by Spectre may be inaccurate because the junction current model has been linearized.
    WARNING (CMI-2144): MP1: The bulk-drain junction current exceeds `imax'.
Warning from spectre during check, during IC analysis, during transient analysis `tran'.
    WARNING (CMI-2943): Parameter checks have been ignored because the valid value for parameter 'trise' could not be found in 'C0'.
    WARNING (CMI-2943): Parameter checks have been ignored because the valid value for parameter 'trise' could not be found in 'C1'.
    WARNING (CMI-2943): Parameter checks have been ignored because the valid value for parameter 'trise' could not be found in 'C2'.

Convergence achieved in 2 iterations.
DC simulation time: CPU = 626 us, elapsed = 625.134 us.

Opening the PSF file ../psf/tran.tran.tran ...
Important parameter values:
    start = 0 s
    outputstart = 0 s
    stop = 500 us
    step = 500 ns
    maxstep = 5 us
    ic = all
    useprevic = no
    skipdc = no
    reltol = 10e-06
    abstol(V) = 1 uV
    abstol(I) = 1 pA
    temp = 27 C
    tnom = 27 C
    tempeffects = all
    errpreset = conservative
    method = gear2only
    lteratio = 10
    relref = alllocal
    cmin = 0 F
    gmin = 1 pS
    rabsshort = 1 mOhm


Notice from spectre during transient analysis `tran'.
    Multithreading is disabled due to the size of the design being too small.


Output and IC/nodeset summary:
                 save   2       (current)
                 save   9       (voltage)


Warning from spectre at time = 612.376 fs during transient analysis `tran'.
    WARNING (CMI-2139): MP1: The bulk-drain junction current exceeds `imelt'.  The results computed by Spectre may be inaccurate because the junction current model has been linearized.
    WARNING (CMI-2144): MP1: The bulk-drain junction current exceeds `imax'.


Opening the PSF file ../psf/tranViolations.violations ...
SOAC: MN3.soac_m1       modn V(G,S): LEAVING@  0us ;
SOAC: MN3.soac_m1       modn V(G,B): LEAVING@  0us ;
SOAC: MP1.soac_m1       modp V(G,S): LEAVING@  0us ;
NOTE: MP1.soac_m1 V(D)>V(S) => Pins swapped. Electrical pins checked ;
SOAC: MP1.soac_m1       modp V(D,S): LEAVING@  0us ;
NOTE: MP1.soac_m1 V(D)>V(S) => Pins swapped. Electrical pins checked ;
SOAC: MP1.soac_m1       modp V(D,B): FORWARD_DIODE@ 0us ;
SOAC: MP1.soac_m1       modp V(S,B): FORWARD_DIODE@ 0us ;
SOAC: MP2.soac_m1       modp V(G,S): LEAVING@  0us ;
SOAC: MP2.soac_m1       modp V(D,S): LEAVING@  0us ;
SOAC: MP2.soac_m1       modp V(D,B): LEAVING@  0us ;
SOAC: MP2.soac_m1       modp V(S,B): FORWARD_DIODE@ 0us ;
    tran: time = 12.5 us      (2.5 %), step = 138.7 ns    (27.7 m%)
    tran: time = 37.5 us      (7.5 %), step = 138.7 ns    (27.7 m%)
    tran: time = 62.5 us     (12.5 %), step = 138.7 ns    (27.7 m%)
    tran: time = 87.5 us     (17.5 %), step = 138.7 ns    (27.7 m%)
    tran: time = 112.5 us    (22.5 %), step = 138.7 ns    (27.7 m%)
    tran: time = 137.5 us    (27.5 %), step = 138.7 ns    (27.7 m%)
    tran: time = 162.5 us    (32.5 %), step = 138.7 ns    (27.7 m%)
    tran: time = 187.5 us    (37.5 %), step = 138.7 ns    (27.7 m%)
    tran: time = 212.5 us    (42.5 %), step = 138.7 ns    (27.7 m%)
    tran: time = 237.5 us    (47.5 %), step = 138.7 ns    (27.7 m%)
    tran: time = 262.5 us    (52.5 %), step = 138.7 ns    (27.7 m%)
    tran: time = 287.5 us    (57.5 %), step = 138.7 ns    (27.7 m%)
    tran: time = 312.5 us    (62.5 %), step = 138.7 ns    (27.7 m%)
    tran: time = 337.5 us    (67.5 %), step = 138.7 ns    (27.7 m%)
    tran: time = 362.5 us    (72.5 %), step = 138.7 ns    (27.7 m%)
    tran: time = 387.5 us    (77.5 %), step = 138.7 ns    (27.7 m%)
    tran: time = 412.5 us    (82.5 %), step = 138.7 ns    (27.7 m%)
    tran: time = 437.5 us    (87.5 %), step = 138.7 ns    (27.7 m%)
    tran: time = 462.5 us    (92.5 %), step = 138.7 ns    (27.7 m%)
    tran: time = 487.5 us    (97.5 %), step = 138.7 ns    (27.7 m%)
Number of accepted tran steps =             118012

Maximum value achieved for any signal of each quantity: 
V: V(net4) = 152.4 V
I: I(V1:p) = 137 mA
Maximum value of each quantity, excluding dangling current sources:
V: V(MP2:int_d) = 151.8 V
I: I(V1:p) = 137 mA

~~~~~~~~~~~~~~~~~~~~~~~~~~~~~~~~~
Post-Transient Simulation Summary
~~~~~~~~~~~~~~~~~~~~~~~~~~~~~~~~~
   -   To further speed up simulation, consider
          add ++aps on command line
   -   Non-default settings that could significantly slow down simulation
          errpreset = conservative, default moderate
          reltol = 10e-06, default 100e-06 (conservative)
   -   The circuit contains signals of the voltage > 10V, consider to set highvoltage=yes to get better accuracy and convergence ability.
~~~~~~~~~~~~~~~~~~~~~~~~~~~~~~~~~


During simulation, the CPU load for active processors is :
         0 (13.1 %)      1 (8.9 %)       2 (5.0 %)       3 (18.4 %)
         4 (58.6 %)      5 (5.1 %)       6 (5.6 %)       7 (5.2 %)
         8 (4.8 %)       9 (5.4 %)      10 (5.4 %)      11 (6.2 %)
        12 (17.3 %)     13 (12.9 %)     14 (7.5 %)      15 (10.5 %)
        16 (7.5 %)      17 (9.0 %)      18 (6.4 %)      19 (5.5 %)
        20 (16.0 %)     21 (8.1 %)      22 (18.0 %)     23 (13.6 %)
        24 (8.4 %)      25 (95.4 %)     26 (10.9 %)     27 (56.5 %)
        28 (4.4 %)      29 (6.2 %)      30 (6.6 %)      31 (3.4 %)
        32 (6.1 %)      33 (3.9 %)      34 (3.3 %)      35 (25.3 %)
        36 (100.0 %)    37 (10.5 %)     38 (1.2 %)      39 (99.9 %)
        40 (1.8 %)      41 (1.3 %)      42 (1.4 %)      44 (1.3 %)
        45 (1.1 %)      46 (1.6 %)      47 (1.0 %)      
        Total: 726.6%
Initial condition solution time: CPU = 668 us, elapsed = 670.91 us.
Intrinsic tran analysis time:    CPU = 17.3175 s, elapsed = 17.3307 s.
Total time required for tran analysis `tran': CPU = 17.3228 s, elapsed = 17.3388 s, util. = 99.9%.
Time accumulated: CPU = 17.9993 s, elapsed = 18.6351 s.
Peak resident memory used = 206 Mbytes.

finalTimeOP: writing operating point information to rawfile.

Opening the PSF file ../psf/finalTimeOP.info ...

*******************************************
AC Analysis `ac': freq = (10 mHz -> 10 GHz)
*******************************************
Trying `homotopy = gmin'.
Homotopy: gmin, steps: 49
Trying `homotopy = source'.
Homotopy: source, steps: 8
Trying `homotopy = dptran'..
Homotopy: dptran, steps: 98

Notice from spectre during DC analysis, during AC analysis `ac'.
    Bad pivoting is found during DC analysis. Option dc_pivot_check=yes is recommended for possible improvement of convergence.
Warning from spectre during DC analysis, during AC analysis `ac'.
    WARNING (CMI-2139): MP1: The bulk-drain junction current exceeds `imelt'.  The results computed by Spectre may be inaccurate because the junction current model has been linearized.
    WARNING (CMI-2144): MP1: The bulk-drain junction current exceeds `imax'.
SOAC: MN3.soac_m1       modn V(G,S): LEAVING@  0us ;
SOAC: MN3.soac_m1       modn V(G,B): LEAVING@  0us ;
SOAC: MP1.soac_m1       modp V(G,S): LEAVING@  0us ;
NOTE: MP1.soac_m1 V(D)>V(S) => Pins swapped. Electrical pins checked ;
SOAC: MP1.soac_m1       modp V(D,S): LEAVING@  0us ;
NOTE: MP1.soac_m1 V(D)>V(S) => Pins swapped. Electrical pins checked ;
SOAC: MP1.soac_m1       modp V(D,B): FORWARD_DIODE@ 0us ;
SOAC: MP1.soac_m1       modp V(S,B): FORWARD_DIODE@ 0us ;
SOAC: MP2.soac_m1       modp V(G,S): LEAVING@  0us ;
SOAC: MP2.soac_m1       modp V(D,S): LEAVING@  0us ;
SOAC: MP2.soac_m1       modp V(D,B): LEAVING@  0us ;
SOAC: MP2.soac_m1       modp V(S,B): FORWARD_DIODE@ 0us ;

Warning from spectre during check, during DC analysis, during AC analysis `ac'.
    WARNING (CMI-2943): Parameter checks have been ignored because the valid value for parameter 'trise' could not be found in 'C0'.
    WARNING (CMI-2943): Parameter checks have been ignored because the valid value for parameter 'trise' could not be found in 'C1'.
    WARNING (CMI-2943): Parameter checks have been ignored because the valid value for parameter 'trise' could not be found in 'C2'.

Convergence achieved in 2414 iterations.
DC simulation time: CPU = 142.679 ms, elapsed = 142.713 ms.

Opening the PSF file ../psf/ac.ac ...
    ac: freq = 30.2 mHz       (4 %), step = 12.82 mHz       (2 %)
    ac: freq = 52.48 mHz      (6 %), step = 22.28 mHz       (2 %)
    ac: freq = 91.2 mHz       (8 %), step = 38.72 mHz       (2 %)
    ac: freq = 158.5 mHz     (10 %), step = 67.29 mHz       (2 %)
    ac: freq = 275.4 mHz     (12 %), step = 116.9 mHz       (2 %)
    ac: freq = 478.6 mHz     (14 %), step = 203.2 mHz       (2 %)
    ac: freq = 831.8 mHz     (16 %), step = 353.1 mHz       (2 %)
    ac: freq = 1.445 Hz      (18 %), step = 613.7 mHz       (2 %)
    ac: freq = 2.512 Hz      (20 %), step = 1.066 Hz        (2 %)
    ac: freq = 4.365 Hz      (22 %), step = 1.853 Hz        (2 %)
    ac: freq = 7.586 Hz      (24 %), step = 3.221 Hz        (2 %)
    ac: freq = 13.18 Hz      (26 %), step = 5.597 Hz        (2 %)
    ac: freq = 22.91 Hz      (28 %), step = 9.726 Hz        (2 %)
    ac: freq = 39.81 Hz      (30 %), step = 16.9 Hz         (2 %)
    ac: freq = 69.18 Hz      (32 %), step = 29.37 Hz        (2 %)
    ac: freq = 120.2 Hz      (34 %), step = 51.04 Hz        (2 %)
    ac: freq = 208.9 Hz      (36 %), step = 88.7 Hz         (2 %)
    ac: freq = 363.1 Hz      (38 %), step = 154.1 Hz        (2 %)
    ac: freq = 631 Hz        (40 %), step = 267.9 Hz        (2 %)
    ac: freq = 1.096 kHz     (42 %), step = 465.5 Hz        (2 %)
    ac: freq = 1.905 kHz     (44 %), step = 809 Hz          (2 %)
    ac: freq = 3.311 kHz     (46 %), step = 1.406 kHz       (2 %)
    ac: freq = 5.754 kHz     (48 %), step = 2.443 kHz       (2 %)
    ac: freq = 10 kHz        (50 %), step = 4.246 kHz       (2 %)
    ac: freq = 17.38 kHz     (52 %), step = 7.378 kHz       (2 %)
    ac: freq = 30.2 kHz      (54 %), step = 12.82 kHz       (2 %)
    ac: freq = 52.48 kHz     (56 %), step = 22.28 kHz       (2 %)
    ac: freq = 91.2 kHz      (58 %), step = 38.72 kHz       (2 %)
    ac: freq = 158.5 kHz     (60 %), step = 67.29 kHz       (2 %)
    ac: freq = 275.4 kHz     (62 %), step = 116.9 kHz       (2 %)
    ac: freq = 478.6 kHz     (64 %), step = 203.2 kHz       (2 %)
    ac: freq = 831.8 kHz     (66 %), step = 353.1 kHz       (2 %)
    ac: freq = 1.445 MHz     (68 %), step = 613.7 kHz       (2 %)
    ac: freq = 2.512 MHz     (70 %), step = 1.066 MHz       (2 %)
    ac: freq = 4.365 MHz     (72 %), step = 1.853 MHz       (2 %)
    ac: freq = 7.586 MHz     (74 %), step = 3.221 MHz       (2 %)
    ac: freq = 13.18 MHz     (76 %), step = 5.597 MHz       (2 %)
    ac: freq = 22.91 MHz     (78 %), step = 9.726 MHz       (2 %)
    ac: freq = 39.81 MHz     (80 %), step = 16.9 MHz        (2 %)
    ac: freq = 69.18 MHz     (82 %), step = 29.37 MHz       (2 %)
    ac: freq = 120.2 MHz     (84 %), step = 51.04 MHz       (2 %)
    ac: freq = 208.9 MHz     (86 %), step = 88.7 MHz        (2 %)
    ac: freq = 363.1 MHz     (88 %), step = 154.1 MHz       (2 %)
    ac: freq = 631 MHz       (90 %), step = 267.9 MHz       (2 %)
    ac: freq = 1.096 GHz     (92 %), step = 465.5 MHz       (2 %)
    ac: freq = 1.905 GHz     (94 %), step = 809 MHz         (2 %)
    ac: freq = 3.311 GHz     (96 %), step = 1.406 GHz       (2 %)
    ac: freq = 5.754 GHz     (98 %), step = 2.443 GHz       (2 %)
    ac: freq = 10 GHz       (100 %), step = 4.246 GHz       (2 %)
Accumulated DC solution time =            142.778 ms.
Intrinsic ac analysis time =              8.91995 ms.

Opening the PSF file ../psf/acViolations.violations ...
Total time required for ac analysis `ac': CPU = 153.733 ms, elapsed = 157.198 ms, util. = 97.8%.
Time accumulated: CPU = 18.1565 s, elapsed = 18.7981 s.
Peak resident memory used = 206 Mbytes.

modelParameter: writing model parameter values to rawfile.

Opening the PSF file ../psf/modelParameter.info ...
element: writing instance parameter values to rawfile.

Opening the PSF file ../psf/element.info ...
outputParameter: writing output parameter values to rawfile.

Opening the PSF file ../psf/outputParameter.info ...
designParamVals: writing netlist parameters to rawfile.

Opening the PSFASCII file ../psf/designParamVals.info ...
primitives: writing primitives to rawfile.

Opening the PSFASCII file ../psf/primitives.info.primitives ...
subckts: writing subcircuits to rawfile.

Opening the PSFASCII file ../psf/subckts.info.subckts ...
Licensing Information:
Lic Summary:
[09:04:35.078409] Cdslmd servers:3000@lic08.ug.kth.se:29000@lic06.ug.kth.se
[09:04:35.078449] Feature usage summary:
[09:04:35.078450] Virtuoso_Multi_mode_Simulation


Aggregate audit (9:04:35 AM, Mon Mar 16, 2026):
Time used: CPU = 18.2 s, elapsed = 18.8 s, util. = 96.6%.
Time spent in licensing: elapsed = 51.6 ms.
Peak memory used = 207 Mbytes.
Simulation started at: 9:04:16 AM, Mon Mar 16, 2026, ended at: 9:04:35 AM, Mon Mar 16, 2026, with elapsed time (wall clock): 18.8 s.
spectre completes with 0 errors, 34 warnings, and 11 notices.
