generate netlist...
*Warning*	Additional design variables have been found during netlisting.
 		A value is necessary for successful simulation.
		To simulate, assign values to all design variables with 
		the Variables->Edit... menu, and use "Netlist and Run".
      ...successful.
compose simulator input file...
      ...successful.
simulate...


Spectre (R) Circuit Simulator
Version 24.1.0.288.isr5 64bit -- 3 Apr 2025
Copyright (C) 1989-2025 Cadence Design Systems, Inc. All rights reserved
        worldwide. Cadence and Spectre are registered trademarks of Cadence
        Design Systems, Inc. All others are the property of their respective
        holders.




Includes RSA BSAFE(R) Cryptographic or Security Protocol Software from RSA
        Security, Inc.


User: davidevi   Host: il2244vt26_davidevi   HostID: 11AC2C00   PID: 451416

Memory  available: 3.0744 TB  physical: 3.2467 TB

Linux   : Rocky Linux release 8.10 (Green Obsidian)
CPU Type: Intel(R) Xeon(R) CPU E7-8857 v2 @ 3.00GHz
        Socket: Processors [Frequency]
        0:       0 [2700.0],  1 [2999.9],  2 [2700.0],  3 [3000.0],  4
        [2600.0]
                 5 [2999.9],  6 [2900.0],  7 [2999.9],  8 [2999.9],  9
        [2999.9]
                10 [3600.0], 11 [3600.0]
        1:      12 [3600.0], 13 [3600.0], 14 [3600.0], 15 [3600.0], 16
        [3600.0]
                17 [3600.0], 18 [3300.0], 19 [3600.0], 20 [3600.0], 21
        [2999.9]
                22 [3000.0], 23 [3600.0]
        2:      24 [3600.0], 25 [2999.9], 26 [2999.9], 27 [2999.9], 28
        [3600.0]
                29 [3600.0], 30 [2999.9], 31 [3600.0], 32 [1200.0], 33
        [1200.0]
                34 [1300.0], 35 [3300.0]
        3:      36 [3100.0], 37 [2999.9], 38 [3600.0], 39 [2700.0], 40
        [3400.0]
                41 [2999.9], 42 [2600.0], 43 [2600.0], 44 [3600.0], 45
        [3600.0]
                46 [2700.0], 47 [3600.0]
        
System load averages (1min, 5min, 15min) : 17.8 %, 13.9 %, 13.6 %
HPC is enabled



Simulating `input.scs' on il2244vt26_davidevi at 5:42:48 PM, Mon Mar 16, 2026
        (process id: 451416).
Current working directory:
        /home/davidevi/Desktop/myproject/Sim/SELF_CMOS/spectre/schematic/netlist

Command line:
    /opt/tools/cadence/installs/SPECTRE241/tools/bin/spectre -64  \
        input.scs +escchars +log ../psf/spectre.out -format psfbin  \
        +rtsf -raw ../psf +aps +mt +lqtimeout 900 -maxw 5 -maxn 5  \
        +param /opt/pdk/ams/410/spectre/ams_range.lmts -env ade  \
        +adespetkn=adespe

Licensing Information:
[17:42:48.121810] Configured Lic search path (24.01-s002):
        3000@lic08.ug.kth.se:29000@lic06.ug.kth.se


Licensing Information:

[17:42:48.181242] Periodic Lic check successful


Intel MKL WARNING: Support of Intel(R) Advanced Vector Extensions (Intel(R) AVX) enabled only processors has been deprecated. Intel oneAPI Math Kernel Library will use Intel(R) Streaming SIMD Extensions 4.2 (Intel(R) SSE4.2) instructions instead.


Warning from spectre.
    WARNING (SPECTRE-691): This CPU processor does not support x86 advanced
        vector extensions instructions. This may affect math operations and
        slow down the simulation.


Reading file: 
        /home/davidevi/Desktop/myproject/Sim/SELF_CMOS/spectre/schematic/netlist/input.scs

Reading file:  /opt/pdk/ams/410/spectre/ams_range.lmts


Warning from spectre during read of parameter soft limits file
        `/opt/pdk/ams/410/spectre/ams_range.lmts', during circuit read-in.
    WARNING (SPECTRE-8360): line 1511: `ac' is an undefined primitive device.

    WARNING (SPECTRE-8360): line 1512: `ac' is an undefined primitive device.

    WARNING (SPECTRE-8360): line 1513: `ac' is an undefined primitive device.

    WARNING (SPECTRE-8360): line 1514: `ac' is an undefined primitive device.

    WARNING (SPECTRE-8360): line 1515: `ac' is an undefined primitive device.

        Further occurrences of this warning will be suppressed.


Reading file: 
        /opt/tools/cadence/installs/SPECTRE241/tools.lnx86/spectre/etc/configs/spectre.cfg

Reading file:  /opt/pdk/ams/410/spectre/c35/soac/soac.scs

Reading file:  /opt/pdk/ams/410/spectre/c35/soac/processOption.scs

Reading file:  /opt/pdk/ams/410/spectre/c35/soac/process.scs

Reading file:  /opt/pdk/ams/410/spectre/c35/soac/soac.va


Warning from spectre during AHDL read-in.

    WARNING (VACOMP-2435): The environment variable CDS_AHDLCMI_ENABLE is no
        longer supported. Therefore, the simulator will use the default
        compiled C code flow.


Reading link: 
        /opt/tools/cadence/installs/SPECTRE241/tools.lnx86/spectre/etc/ahdl/constants.h

Reading file: 
        /opt/tools/cadence/installs/SPECTRE241/tools.lnx86/spectre/etc/ahdl/constants.vams

Reading link: 
        /opt/tools/cadence/installs/SPECTRE241/tools.lnx86/spectre/etc/ahdl/discipline.h

Reading file: 
        /opt/tools/cadence/installs/SPECTRE241/tools.lnx86/spectre/etc/ahdl/disciplines.vams

Reading file:  /opt/pdk/ams/410/spectre/c35/processOption/C35B4C3.scs

Reading file:  /opt/pdk/ams/410/spectre/c35/soac/cmos53.scs

Reading file:  /opt/pdk/ams/410/spectre/c35/soac/res.scs

Reading file:  /opt/pdk/ams/410/spectre/c35/soac/cap.scs

Reading file:  /opt/pdk/ams/410/spectre/c35/soac/bip.scs

Reading file:  /opt/pdk/ams/410/spectre/c35/soac/ind.scs

Reading file:  /opt/pdk/ams/410/spectre/c35/soac/esddiode.scs

Time for NDB Parsing: CPU = 160.451 ms, elapsed = 299.188 ms.

Time accumulated: CPU = 351.803 ms, elapsed = 299.191 ms.

Peak resident memory used = 175 Mbytes.



Existing shared object for module modn_ahdl is up to date.
Installed compiled interface for modn_ahdl.

Existing shared object for module modp_ahdl is up to date.

Installed compiled interface for modp_ahdl.

Time for Elaboration: CPU = 35.345 ms, elapsed = 36.639 ms.

Time accumulated: CPU = 387.304 ms, elapsed = 335.986 ms.

Peak resident memory used = 185 Mbytes.




Notice from spectre during hierarchy flattening.

    The value 'psf' specified for the 'checklimitdest' option will no longer be
        supported in future releases. Use 'spectre -h' to see other recommended
        values for the 'checklimitdest' option.




        *****************************************************************************************
* 
* INFO: AMS_processOption = C35B4C3
* 
* INFO: Valid Modules  PIP VG5 HIRES
* 

        *****************************************************************************************




Time for EDB Visiting: CPU = 3.189 ms, elapsed = 3.18789 ms.

Time accumulated: CPU = 390.697 ms, elapsed = 339.378 ms.

Peak resident memory used = 188 Mbytes.




Warning from spectre during initial setup.

    WARNING (SPECTRE-16460): SOAC_cvarm_vspsub:Specified subcircuit master
        `cvarm' was not found.

    WARNING (SPECTRE-16462): SOAC_cvarm_vspsub:Error in specification of
        subcircuit master. Assert is ignored.

    WARNING (SPECTRE-16460): SOAC_cvarm_vbs:Specified subcircuit master `cvarm'
        was not found.

    WARNING (SPECTRE-16462): SOAC_cvarm_vbs:Error in specification of
        subcircuit master. Assert is ignored.

    WARNING (SPECTRE-16460): SOAC_cvarm_vgb:Specified subcircuit master `cvarm'
        was not found.

    WARNING (SPECTRE-16462): SOAC_cvarm_vgb:Error in specification of
        subcircuit master. Assert is ignored.

    WARNING (SPECTRE-16460): SOAC_cvart_vspsub:Specified subcircuit master
        `cvart' was not found.

    WARNING (SPECTRE-16462): SOAC_cvart_vspsub:Error in specification of
        subcircuit master. Assert is ignored.

    WARNING (SPECTRE-16460): SOAC_cvart_vbs:Specified subcircuit master `cvart'
        was not found.

        Further occurrences of this warning will be suppressed.

    WARNING (SPECTRE-16462): SOAC_cvart_vbs:Error in specification of
        subcircuit master. Assert is ignored.
        Further occurrences of this warning will be suppressed.

Notice from spectre during topology check.
    Only one connection to the following 2 nodes:

        MN0.psub!
        MP0.psub!
Notice from spectre during initial setup.
    Multithreading is disabled due to the size of the design being too small.



Netlist title:
        // Generated for: spectre


Global user options:

         psfversion = 1.4.0

            vabstol = 1e-06

            iabstol = 1e-12

               temp = 27

           homotopy = 5

              limit = delta

         compatible = spice2

               gmin = 1e-12

             rforce = 1

           maxnotes = 5
           maxwarns = 5

             digits = 5

               cols = 80

             pivrel = 0.001

           sensfile = ../psf/sens.output

     checklimitdest = psf

     enable_pre_ver = yes

      ignorezerovar = yes

               save = allpub

             reltol = 0.0001

               tnom = 27

             scalem = 1

              scale = 1


Scoped user options:


Circuit inventory:

              nodes 9

            bsim3v3 2     

            isource 2     

          modn_ahdl 1     

          modp_ahdl 1     

               vcvs 2     

            vsource 3     


Analysis and control statement inventory:

                 dc 1     

               info 7     


Output statements:

             .probe 0     

           .measure 0     

               save 0     


Design checks inventory:

          paramtest 3     

             assert 175   




Notice from spectre during initial setup.

    APS enabled.

    72 warnings suppressed.


Time for parsing: CPU = 12.751 ms, elapsed = 593.634 ms.

Time accumulated: CPU = 403.569 ms, elapsed = 933.133 ms.

Peak resident memory used = 193 Mbytes.



~~~~~~~~~~~~~~~~~~~~~~
Pre-Simulation Summary
~~~~~~~~~~~~~~~~~~~~~~

   -   (APS) Multi-threading. The recommended number of threads is 1, consider
        adding +mt=1 on command line.

~~~~~~~~~~~~~~~~~~~~~~


******************
DC Analysis `dcOp'
******************


Notice from spectre during DC analysis `dcOp'.

    No checklimit analysis defined for asserts. A default checklimit analysis
        'SpectreChecklimitAnal' has been created with all asserts enabled.



Opening the PSF file ../psf/dcOp.dc ...

Important parameter values:
    reltol = 100e-06

    abstol(V) = 1 uV

    abstol(I) = 1 pA

    temp = 27 C

    tnom = 27 C

    tempeffects = all

    gmindc = 1 pS

    rabsshort = 1 mOhm

Trying `homotopy = gmin'.

Homotopy: gmin, steps: 71


Notice from spectre during DC analysis `dcOp'.
    Bad pivoting is found during DC analysis. Option dc_pivot_check=yes is
        recommended for possible improvement of convergence.



Maximum value achieved for any signal of each quantity: 

V: V(net4) = 3.3 V

I: I(V2:p) = 11.05 aA

Maximum value of each quantity, excluding Verilog-A modules or dangling current
        sources:

V: V(net7) = 1.8 V

I: I(V2:p) = 11.05 aA

Convergence achieved in 1005 iterations.

DC simulation time: CPU = 98.883 ms, elapsed = 101.727 ms.

Total time required for dc analysis `dcOp': CPU = 99.037 ms, elapsed = 101.872
        ms, util. = 97.2%.

Time accumulated: CPU = 525.515 ms, elapsed = 1.05836 s.

Peak resident memory used = 202 Mbytes.



dcOpInfo: writing operating point information to rawfile.


Opening the PSF file ../psf/dcOpInfo.info ...

modelParameter: writing model parameter values to rawfile.


Opening the PSF file ../psf/modelParameter.info ...

element: writing instance parameter values to rawfile.


Opening the PSF file ../psf/element.info ...

outputParameter: writing output parameter values to rawfile.


Opening the PSF file ../psf/outputParameter.info ...

designParamVals: writing netlist parameters to rawfile.


Opening the PSFASCII file ../psf/designParamVals.info ...

primitives: writing primitives to rawfile.


Opening the PSFASCII file ../psf/primitives.info.primitives ...

subckts: writing subcircuits to rawfile.


Opening the PSFASCII file ../psf/subckts.info.subckts ...

Licensing Information:
Lic Summary:
[17:42:49.109739] Cdslmd servers:3000@lic08.ug.kth.se:29000@lic06.ug.kth.se
[17:42:49.634067] Feature usage summary:
[17:42:49.634067] Virtuoso_Multi_mode_Simulation



Aggregate audit (5:42:49 PM, Mon Mar 16, 2026):

Time used: CPU = 549 ms, elapsed = 1.09 s, util. = 50.4%.

Time spent in licensing: elapsed = 48.6 ms.

Peak memory used = 203 Mbytes.

Simulation started at: 5:42:48 PM, Mon Mar 16, 2026, ended at: 5:42:49 PM, Mon
        Mar 16, 2026, with elapsed time (wall clock): 1.09 s.

spectre completes with 0 errors, 17 warnings, and 8 notices.

reading simulation data...
      ...successful.
