
Spectre (R) Circuit Simulator
Version 24.1.0.288.isr5 64bit -- 3 Apr 2025
Copyright (C) 1989-2025 Cadence Design Systems, Inc. All rights reserved worldwide. Cadence and Spectre are registered trademarks of Cadence Design Systems, Inc. All others are the property of their respective holders.

Includes RSA BSAFE(R) Cryptographic or Security Protocol Software from RSA Security, Inc.

User: davidevi   Host: il2244vt26_davidevi   HostID: 11AC2C00   PID: 1021917
Memory  available: 3.0307 TB  physical: 3.2467 TB
Linux   : Rocky Linux release 8.10 (Green Obsidian)
CPU Type: Intel(R) Xeon(R) CPU E7-8857 v2 @ 3.00GHz
        Socket: Processors [Frequency]
        0:       0 [2999.9],  1 [2999.9],  2 [2999.9],  3 [2500.0],  4 [3600.0]
                 5 [1200.0],  6 [1200.0],  7 [2600.0],  8 [1200.0],  9 [1200.0]
                10 [1300.0], 11 [2400.0]
        1:      12 [3600.0], 13 [3600.0], 14 [2500.0], 15 [3000.0], 16 [1200.0]
                17 [3600.0], 18 [3375.8], 19 [3269.2], 20 [1200.0], 21 [1200.0]
                22 [3375.9], 23 [3375.9]
        2:      24 [3600.0], 25 [1200.0], 26 [2500.0], 27 [2700.0], 28 [2999.9]
                29 [1200.0], 30 [1200.0], 31 [1200.0], 32 [1500.0], 33 [2500.0]
                34 [2999.9], 35 [2700.0]
        3:      36 [2400.0], 37 [1200.0], 38 [2600.0], 39 [2600.0], 40 [2999.9]
                41 [2500.0], 42 [2400.0], 43 [2400.0], 44 [3600.0], 45 [3600.0]
                46 [3600.0], 47 [2999.7]
        
System load averages (1min, 5min, 15min) : 25.5 %, 22.7 %, 24.1 %
HPC is enabled


Simulating `input.scs' on il2244vt26_davidevi at 4:48:04 PM, Wed Apr 15, 2026 (process id: 1021917).
Current working directory: /home/davidevi/Desktop/myproject/Sim/VGA/VGA_1_wakeup_tb/adexl/results/data/MonteCarlo.0/6/wakeup/groupRunDataDir/netlist
Command line:
    /opt/tools/cadence/installs/SPECTRE241/tools/bin/spectre -64  \
        input.scs +escchars +log ../psf/spectre.out -format psfbin  \
        +rtsf -raw ../psf +aps +mt +lqtimeout 900 -maxw 5 -maxn 5  \
        +param /opt/pdk/ams/410/spectre/ams_range.lmts -env ade  \
        -ahdllibdir  \
        /home/davidevi/Desktop/myproject/Sim/VGA/VGA_1_wakeup_tb/adexl/results/data/MonteCarlo.0/sharedData/Job457/ahdl/input.ahdlSimDB  \
        +logstatus  \
        +adespetkn=0001089D13A302B663E41FB550AF0DF415A679A322D5069144BF588C12F604E07EF416DC01A319B562BB63D343E205AB45A343C33BC018A241F33BC854EA4F9201D479D15D9175FF34986BDD0AF002BA50FD7FD707E002A700AC1C841AFC44E10EA979D12FF874D3349879D118F874D33498100ED9BBB5905D4700003668

Simulation Id: qxOIOyuklqwSwU5L
Licensing Information:
[16:48:05.121794] Configured Lic search path (24.01-s002): 3000@lic08.ug.kth.se:29000@lic06.ug.kth.se

Licensing Information:
[16:48:05.171714] Periodic Lic check successful

Loading /opt/tools/cadence/installs/SPECTRE241/tools.lnx86/cmi/lib/64bit/5.0/libinfineon_sh.so ...
Loading /opt/tools/cadence/installs/SPECTRE241/tools.lnx86/cmi/lib/64bit/5.0/libphilips_I_sh.so ...
Loading /opt/tools/cadence/installs/SPECTRE241/tools.lnx86/cmi/lib/64bit/5.0/libphilips_sh.so ...
Loading /opt/tools/cadence/installs/SPECTRE241/tools.lnx86/cmi/lib/64bit/5.0/libsparam_sh.so ...
Loading /opt/tools/cadence/installs/SPECTRE241/tools.lnx86/cmi/lib/64bit/5.0/libstmodels_sh.so ...

Warning from spectre.
    WARNING (SPECTRE-691): This CPU processor does not support x86 advanced vector extensions instructions. This may affect math operations and slow down the simulation.

Reading file:  /home/davidevi/Desktop/myproject/Sim/VGA/VGA_1_wakeup_tb/adexl/results/data/MonteCarlo.0/6/wakeup/groupRunDataDir/netlist/input.scs
Reading file:  /opt/pdk/ams/410/spectre/ams_range.lmts

Warning from spectre during read of parameter soft limits file `/opt/pdk/ams/410/spectre/ams_range.lmts', during circuit read-in.
    WARNING (SPECTRE-8360): line 1511: `ac' is an undefined primitive device.
    WARNING (SPECTRE-8360): line 1512: `ac' is an undefined primitive device.
    WARNING (SPECTRE-8360): line 1513: `ac' is an undefined primitive device.
    WARNING (SPECTRE-8360): line 1514: `ac' is an undefined primitive device.
    WARNING (SPECTRE-8360): line 1515: `ac' is an undefined primitive device.
        Further occurrences of this warning will be suppressed.

Reading file:  /opt/tools/cadence/installs/SPECTRE241/tools.lnx86/spectre/etc/configs/spectre.cfg
Reading file:  /opt/pdk/ams/410/spectre/c35/soac/soac.scs
Reading file:  /opt/pdk/ams/410/spectre/c35/soac/processOption.scs
Reading file:  /opt/pdk/ams/410/spectre/c35/soac/process.scs
Reading file:  /opt/pdk/ams/410/spectre/c35/soac/soac.va

Warning from spectre during AHDL read-in.
    WARNING (VACOMP-2435): The environment variable CDS_AHDLCMI_ENABLE is no longer supported. Therefore, the simulator will use the default compiled C code flow.

Reading link:  /opt/tools/cadence/installs/SPECTRE241/tools.lnx86/spectre/etc/ahdl/constants.h
Reading file:  /opt/tools/cadence/installs/SPECTRE241/tools.lnx86/spectre/etc/ahdl/constants.vams
Reading link:  /opt/tools/cadence/installs/SPECTRE241/tools.lnx86/spectre/etc/ahdl/discipline.h
Reading file:  /opt/tools/cadence/installs/SPECTRE241/tools.lnx86/spectre/etc/ahdl/disciplines.vams
Reading file:  /opt/pdk/ams/410/spectre/c35/processOption/C35B4C3.scs
Reading file:  /opt/pdk/ams/410/spectre/c35/soac/cmos53.scs
Reading file:  /opt/pdk/ams/410/spectre/c35/soac/res.scs
Reading file:  /opt/pdk/ams/410/spectre/c35/soac/cap.scs
Reading file:  /opt/pdk/ams/410/spectre/c35/soac/bip.scs
Reading file:  /opt/pdk/ams/410/spectre/c35/soac/ind.scs
Reading file:  /opt/pdk/ams/410/spectre/c35/soac/esddiode.scs
Time for NDB Parsing: CPU = 173.933 ms, elapsed = 391.705 ms.
Time accumulated: CPU = 374.146 ms, elapsed = 391.708 ms.
Peak resident memory used = 175 Mbytes.

Existing shared object for module modn_ahdl is up to date.
Installed compiled interface for modn_ahdl.
Existing shared object for module modp_ahdl is up to date.
Installed compiled interface for modp_ahdl.
Existing shared object for module cpoly_ahdl is up to date.
Installed compiled interface for cpoly_ahdl.
Existing shared object for module rpolyh_ahdl is up to date.
Installed compiled interface for rpolyh_ahdl.
Existing shared object for module bsource_19b458 is up to date.
Installed compiled interface for bsource_19b458.
Time for Elaboration: CPU = 63.483 ms, elapsed = 67.5929 ms.
Time accumulated: CPU = 437.772 ms, elapsed = 459.443 ms.
Peak resident memory used = 189 Mbytes.


Notice from spectre during hierarchy flattening.
    The value 'psf' specified for the 'checklimitdest' option will no longer be supported in future releases. Use 'spectre -h' to see other recommended values for the 'checklimitdest' option.


*****************************************************************************************
* 
* INFO: AMS_processOption = C35B4C3
* 
* INFO: Valid Modules  PIP VG5 HIRES
* 
*****************************************************************************************


Notice from spectre during hierarchy flattening.
    V8: `period' has the unusually large value of 100 s.


Time for EDB Visiting: CPU = 9.922 ms, elapsed = 9.92107 ms.
Time accumulated: CPU = 447.895 ms, elapsed = 469.564 ms.
Peak resident memory used = 191 Mbytes.

Loading /opt/tools/cadence/installs/SPECTRE241/tools.lnx86/mdl/lib/64bit/libSpectreEH_sh.so ...

Warning from spectre during initial setup.
    WARNING (SPECTRE-16460): SOAC_cvarm_vspsub:Specified subcircuit master `cvarm' was not found.
    WARNING (SPECTRE-16462): SOAC_cvarm_vspsub:Error in specification of subcircuit master. Assert is ignored.
    WARNING (SPECTRE-16460): SOAC_cvarm_vbs:Specified subcircuit master `cvarm' was not found.
    WARNING (SPECTRE-16462): SOAC_cvarm_vbs:Error in specification of subcircuit master. Assert is ignored.
    WARNING (SPECTRE-16460): SOAC_cvarm_vgb:Specified subcircuit master `cvarm' was not found.
    WARNING (SPECTRE-16462): SOAC_cvarm_vgb:Error in specification of subcircuit master. Assert is ignored.
    WARNING (SPECTRE-16460): SOAC_cvart_vspsub:Specified subcircuit master `cvart' was not found.
    WARNING (SPECTRE-16462): SOAC_cvart_vspsub:Error in specification of subcircuit master. Assert is ignored.
    WARNING (SPECTRE-16460): SOAC_cvart_vbs:Specified subcircuit master `cvart' was not found.
        Further occurrences of this warning will be suppressed.
    WARNING (SPECTRE-16462): SOAC_cvart_vbs:Error in specification of subcircuit master. Assert is ignored.
        Further occurrences of this warning will be suppressed.
Notice from spectre during topology check.
    Only one connection to the following 54 nodes:
        I0.MN6.psub!
        I0.MN5.psub!
        I0.MN4.psub!
        I0.MN3.psub!
        I0.MN2.psub!
        Further occurrences of this notice will be suppressed.
Notice from spectre during initial setup.
    Multithreading is disabled due to the size of the design being too small.


Netlist title:
        // Point Netlist Generated on: Apr 15 16:48:04 2026


Global user options:
         psfversion = 1.4.0
            vabstol = 1e-06
            iabstol = 1e-12
               temp = -40
           homotopy = 5
              limit = delta
         compatible = spice2
               gmin = 1e-12
             rforce = 1
           maxnotes = 5
           maxwarns = 5
             digits = 5
               cols = 80
             pivrel = 0.001
           sensfile = ../psf/sens.output
     checklimitdest = psf
     enable_pre_ver = yes
      ignorezerovar = yes
               save = allpub
             reltol = 0.0001
               tnom = 27
             scalem = 1
              scale = 1

Scoped user options:

Circuit inventory:
              nodes 88
            bsim3v3 35    
     bsource_19b458 2     
          capacitor 38    
         cpoly_ahdl 17    
            isource 1     
          modn_ahdl 19    
          modp_ahdl 16    
           resistor 1     
        rpolyh_ahdl 2     
            vsource 8     

Analysis and control statement inventory:
               info 7     
         montecarlo 1     
               tran 1     

Output statements:
             .probe 0     
           .measure 0     
               save 0     

Design checks inventory:
          paramtest 55    
             assert 175   


Notice from spectre during initial setup.
    APS enabled.
    1 notice suppressed.
    72 warnings suppressed.

Time for parsing: CPU = 19.451 ms, elapsed = 647.515 ms.
Time accumulated: CPU = 467.486 ms, elapsed = 1.11722 s.
Peak resident memory used = 198 Mbytes.

~~~~~~~~~~~~~~~~~~~~~~
Pre-Simulation Summary
~~~~~~~~~~~~~~~~~~~~~~
   -   (APS) Multi-threading. The recommended number of threads is 1, consider adding +mt=1 on command line.
~~~~~~~~~~~~~~~~~~~~~~

**************************************************
Monte Carlo Analysis `mc1': iteration = (1 -> 100)
**************************************************
Important parameter values:
    seed = 12345
    sampling = lds
    variations = all
    firstrun = 1
    numruns = 100
    nullmfactorcorrelation = no
    donominal = yes
    method = standard

**** Performing nominal run for `mc1'

Notice from spectre during transient analysis `tran', during Monte Carlo analysis `mc1'.
    No checklimit analysis defined for asserts. A default checklimit analysis 'SpectreChecklimitAnal' has been created with all asserts enabled.


***********************************************
Transient Analysis `tran': time = (0 s -> 50 s)
***********************************************

Warning from spectre during check, during IC analysis, during transient analysis `tran', during Monte Carlo analysis `mc1'.
    WARNING (CMI-2943): Parameter checks have been ignored because the valid value for parameter 'trise' could not be found in 'C1'.
    WARNING (CMI-2943): Parameter checks have been ignored because the valid value for parameter 'trise' could not be found in 'I0.R2.CM'.
    WARNING (CMI-2943): Parameter checks have been ignored because the valid value for parameter 'trise' could not be found in 'I0.R2.CS1'.
    WARNING (CMI-2943): Parameter checks have been ignored because the valid value for parameter 'trise' could not be found in 'I0.R2.CS0'.
    WARNING (CMI-2943): Parameter checks have been ignored because the valid value for parameter 'trise' could not be found in 'I0.C3.C1'.
        Further occurrences of this warning will be suppressed.

Convergence achieved in 12 iterations.
DC simulation time: CPU = 3.09 ms, elapsed = 3.0911 ms.

Opening the PSF file ../psf/nom/tran.tran.tran ...
Important parameter values:
    start = 0 s
    outputstart = 0 s
    stop = 50 s
    step = 50 ms
    maxstep = 500 ms
    ic = all
    useprevic = no
    skipdc = no
    reltol = 10e-06
    abstol(V) = 1 uV
    abstol(I) = 1 pA
    temp = -40 C
    tnom = 27 C
    tempeffects = all
    errpreset = conservative
    method = gear2only
    lteratio = 10
    relref = alllocal
    cmin = 0 F
    gmin = 1 pS
    rabsshort = 1 mOhm


Notice from spectre during transient analysis `tran', during Monte Carlo analysis `mc1'.
    Multithreading is disabled due to the size of the design being too small.


Output and IC/nodeset summary:
                 save   8       (current)
                 save   87      (voltage)

    tran: time = 1.273 s     (2.55 %), step = 115.7 ms     (231 m%)
    tran: time = 3.876 s     (7.75 %), step = 302.1 ms     (604 m%)
    tran: time = 6.288 s     (12.6 %), step = 487.3 ms     (975 m%)
    tran: time = 8.788 s     (17.6 %), step = 500 ms          (1 %)
    tran: time = 11.29 s     (22.6 %), step = 500 ms          (1 %)
    tran: time = 13.79 s     (27.6 %), step = 500 ms          (1 %)
    tran: time = 16.29 s     (32.6 %), step = 500 ms          (1 %)
    tran: time = 18.79 s     (37.6 %), step = 500 ms          (1 %)
    tran: time = 21.29 s     (42.6 %), step = 500 ms          (1 %)
    tran: time = 23.79 s     (47.6 %), step = 500 ms          (1 %)
    tran: time = 26.29 s     (52.6 %), step = 500 ms          (1 %)
    tran: time = 28.79 s     (57.6 %), step = 500 ms          (1 %)
    tran: time = 31.29 s     (62.6 %), step = 500 ms          (1 %)
    tran: time = 33.79 s     (67.6 %), step = 500 ms          (1 %)
    tran: time = 36.41 s     (72.8 %), step = 320.6 ms     (641 m%)
    tran: time = 38.8 s      (77.6 %), step = 53.4 ms      (107 m%)
    tran: time = 41.38 s     (82.8 %), step = 434.4 ms     (869 m%)
    tran: time = 44.19 s     (88.4 %), step = 500 ms          (1 %)
    tran: time = 46.69 s     (93.4 %), step = 500 ms          (1 %)
    tran: time = 49.19 s     (98.4 %), step = 500 ms          (1 %)
Number of accepted tran steps =             665

Maximum value achieved for any signal of each quantity: 
V: V(vout_filt) = 3.3 V
I: I(V8:p) = 6.477 uA

~~~~~~~~~~~~~~~~~~~~~~~~~~~~~~~~~
Post-Transient Simulation Summary
~~~~~~~~~~~~~~~~~~~~~~~~~~~~~~~~~
   -   To further speed up simulation, consider
          add ++aps on command line
   -   Non-default settings that could significantly slow down simulation
          errpreset = conservative, default moderate
          reltol = 10e-06, default 100e-06 (conservative)
~~~~~~~~~~~~~~~~~~~~~~~~~~~~~~~~~


During simulation, the CPU load for active processors is :
         0 (9.8 %)       1 (40.7 %)      2 (100.0 %)     3 (2.1 %)
         4 (17.0 %)      5 (4.8 %)       6 (61.9 %)      7 (2.8 %)
         8 (2.8 %)       9 (4.9 %)      10 (12.5 %)     11 (4.1 %)
        12 (5.4 %)      13 (2.1 %)      14 (1.4 %)      15 (5.5 %)
        16 (8.3 %)      17 (2.1 %)      18 (26.2 %)     19 (82.4 %)
        20 (4.9 %)      21 (2.8 %)      22 (39.7 %)     23 (100.0 %)
        24 (46.6 %)     25 (11.8 %)     26 (6.2 %)      27 (6.8 %)
        28 (100.0 %)    29 (2.8 %)      30 (6.9 %)      31 (31.7 %)
        32 (11.1 %)     33 (7.7 %)      34 (6.3 %)      35 (5.5 %)
        36 (2.1 %)      37 (25.9 %)     38 (24.5 %)     39 (3.5 %)
        40 (100.0 %)    41 (6.9 %)      42 (10.3 %)     43 (4.8 %)
        44 (5.4 %)      45 (4.1 %)      46 (34.9 %)     47 (5.5 %)
        Total: 1015.3%
Initial condition solution time: CPU = 3.136 ms, elapsed = 3.13807 ms.
Intrinsic tran analysis time:    CPU = 406.735 ms, elapsed = 408.53 ms.
Total time required for tran analysis `tran': CPU = 493.031 ms, elapsed = 498.579 ms, util. = 98.9%.
Time accumulated: CPU = 987.703 ms, elapsed = 1.64415 s.
Peak resident memory used = 210 Mbytes.


Notice from spectre during transient analysis `tran', during Monte Carlo analysis `mc1'.
    34 warnings suppressed.

finalTimeOP: writing operating point information to rawfile.

Opening the PSF file ../psf/nom/finalTimeOP.info ...
modelParameter: writing model parameter values to rawfile.

Opening the PSF file ../psf/nom/modelParameter.info ...
element: writing instance parameter values to rawfile.

Opening the PSF file ../psf/nom/element.info ...
outputParameter: writing output parameter values to rawfile.

Opening the PSF file ../psf/nom/outputParameter.info ...
designParamVals: writing netlist parameters to rawfile.

Opening the PSFASCII file ../psf/nom/designParamVals.info ...
primitives: writing primitives to rawfile.

Opening the PSFASCII file ../psf/nom/primitives.info.primitives ...
subckts: writing subcircuits to rawfile.

Opening the PSFASCII file ../psf/nom/subckts.info.subckts ...
Opening iteration number and data-directory mapping file:  /home/davidevi/Desktop/myproject/Sim/VGA/VGA_1_wakeup_tb/adexl/results/data/MonteCarlo.0/6/wakeup/groupRunDataDir/netlist/../psf/mc1.mapping

Statistical parameters:
    Defined process parameters: 629
    Defined mismatch parameters (subckt based): 86
    Non-referenced mismatch parameters: 80
    Number of random variables: 718
    Gaussian truncation for process parameters: 4.00 sigma
    Gaussian truncation for mismatch parameters: 4.00 sigma


Opening the PSF file ../psf/mc1_tran.montecarlo ...

Opening the PSF file ../psf/mc1_finalTimeOP.montecarlo ...

Opening the PSF file ../psf/mc1_modelParameter.montecarlo ...

Opening the PSF file ../psf/mc1_element.montecarlo ...

Opening the PSF file ../psf/mc1_outputParameter.montecarlo ...

Opening the PSF file ../psf/mc1_designParamVals.montecarlo ...

Opening the PSF file ../psf/mc1_primitives.montecarlo ...

Opening the PSF file ../psf/mc1_subckts.montecarlo ...

**** Performing monte carlo loop for `mc1'

1   0.00% 

*****************************************************************************************
* 
* INFO: AMS_processOption = C35B4C3
* 
* INFO: Valid Modules  PIP VG5 HIRES
* 
*****************************************************************************************


Notice from spectre at iteration = 1 during Monte Carlo analysis `mc1'.
    V8: `period' has the unusually large value of 100 s.


***********************************************
Transient Analysis `tran': time = (0 s -> 50 s)
***********************************************

Opening the PSF file ../psf/mc1_separate/001/tran.tran.tran ...

Warning from spectre at iteration = 1 during check, during IC analysis, during transient analysis `tran', during Monte Carlo analysis `mc1'.
    WARNING (CMI-2943): Parameter checks have been ignored because the valid value for parameter 'trise' could not be found in 'C1'.
    WARNING (CMI-2943): Parameter checks have been ignored because the valid value for parameter 'trise' could not be found in 'I0.R2.CM'.
    WARNING (CMI-2943): Parameter checks have been ignored because the valid value for parameter 'trise' could not be found in 'I0.R2.CS1'.
    WARNING (CMI-2943): Parameter checks have been ignored because the valid value for parameter 'trise' could not be found in 'I0.R2.CS0'.
    WARNING (CMI-2943): Parameter checks have been ignored because the valid value for parameter 'trise' could not be found in 'I0.C3.C1'.
        Further occurrences of this warning will be suppressed.

Convergence achieved in 12 iterations.
DC simulation time: CPU = 2.975 ms, elapsed = 2.97594 ms.
Important parameter values:
    start = 0 s
    outputstart = 0 s
    stop = 50 s
    step = 50 ms
    maxstep = 500 ms
    ic = all
    useprevic = no
    skipdc = no
    reltol = 10e-06
    abstol(V) = 1 uV
    abstol(I) = 1 pA
    temp = -40 C
    tnom = 27 C
    tempeffects = all
    errpreset = conservative
    method = gear2only
    lteratio = 10
    relref = alllocal
    cmin = 0 F
    gmin = 1 pS
    rabsshort = 1 mOhm


Notice from spectre at iteration = 1 during transient analysis `tran', during Monte Carlo analysis `mc1'.
    Multithreading is disabled due to the size of the design being too small.


Output and IC/nodeset summary:
                 save   8       (current)
                 save   87      (voltage)

    tran: time = 1.271 s     (2.54 %), step = 127.1 ms     (254 m%)
    tran: time = 3.788 s     (7.58 %), step = 305.7 ms     (611 m%)
    tran: time = 6.723 s     (13.4 %), step = 500 ms          (1 %)
    tran: time = 9.223 s     (18.4 %), step = 500 ms          (1 %)
    tran: time = 11.72 s     (23.4 %), step = 500 ms          (1 %)
    tran: time = 14.22 s     (28.4 %), step = 500 ms          (1 %)
    tran: time = 16.72 s     (33.4 %), step = 500 ms          (1 %)
    tran: time = 19.22 s     (38.4 %), step = 500 ms          (1 %)
    tran: time = 21.72 s     (43.4 %), step = 500 ms          (1 %)
    tran: time = 24.22 s     (48.4 %), step = 500 ms          (1 %)
    tran: time = 26.72 s     (53.4 %), step = 500 ms          (1 %)
    tran: time = 29.22 s     (58.4 %), step = 500 ms          (1 %)
    tran: time = 31.72 s     (63.4 %), step = 500 ms          (1 %)
    tran: time = 34.22 s     (68.4 %), step = 500 ms          (1 %)
    tran: time = 36.69 s     (73.4 %), step = 461.8 ms     (924 m%)
    tran: time = 38.79 s     (77.6 %), step = 80.21 ms     (160 m%)
    tran: time = 41.26 s     (82.5 %), step = 272.2 ms     (544 m%)
    tran: time = 43.81 s     (87.6 %), step = 459.1 ms     (918 m%)
    tran: time = 46.27 s     (92.5 %), step = 500 ms          (1 %)
    tran: time = 48.77 s     (97.5 %), step = 500 ms          (1 %)
Number of accepted tran steps =             660

Maximum value achieved for any signal of each quantity: 
V: V(vout_filt) = 3.3 V
I: I(V8:p) = 6.379 uA

~~~~~~~~~~~~~~~~~~~~~~~~~~~~~~~~~
Post-Transient Simulation Summary
~~~~~~~~~~~~~~~~~~~~~~~~~~~~~~~~~
   -   To further speed up simulation, consider
          add ++aps on command line
   -   Non-default settings that could significantly slow down simulation
          errpreset = conservative, default moderate
          reltol = 10e-06, default 100e-06 (conservative)
~~~~~~~~~~~~~~~~~~~~~~~~~~~~~~~~~


During simulation, the CPU load for active processors is :
         0 (11.4 %)      1 (30.1 %)      2 (100.0 %)     3 (3.0 %)
         4 (12.6 %)      5 (7.2 %)       6 (67.5 %)      7 (5.4 %)
         8 (3.4 %)       9 (7.3 %)      10 (15.1 %)     11 (8.7 %)
        12 (5.2 %)      13 (30.2 %)     14 (1.5 %)      15 (4.4 %)
        16 (9.7 %)      17 (3.9 %)      18 (22.6 %)     19 (82.4 %)
        20 (4.4 %)      21 (2.5 %)      22 (30.1 %)     23 (100.0 %)
        24 (59.9 %)     25 (10.7 %)     26 (5.3 %)      27 (5.8 %)
        28 (100.0 %)    29 (2.0 %)      30 (33.7 %)     31 (22.9 %)
        32 (8.7 %)      33 (5.9 %)      34 (6.3 %)      35 (4.4 %)
        36 (2.4 %)      37 (47.1 %)     38 (17.6 %)     39 (2.5 %)
        40 (100.0 %)    41 (4.9 %)      42 (7.4 %)      43 (3.9 %)
        44 (4.3 %)      45 (3.9 %)      46 (25.1 %)     47 (7.2 %)
        Total: 1060.6%
Initial condition solution time: CPU = 3.021 ms, elapsed = 3.02196 ms.
Intrinsic tran analysis time:    CPU = 404.118 ms, elapsed = 405.948 ms.
Total time required for tran analysis `tran': CPU = 410.013 ms, elapsed = 412.453 ms, util. = 99.4%.
Time accumulated: CPU = 1.48075 s, elapsed = 2.15427 s.
Peak resident memory used = 213 Mbytes.


Notice from spectre during transient analysis `tran', during Monte Carlo analysis `mc1'.
    34 warnings suppressed.

finalTimeOP: writing operating point information to rawfile.

Opening the PSF file ../psf/mc1_separate/001/finalTimeOP.info ...
modelParameter: writing model parameter values to rawfile.

Opening the PSF file ../psf/mc1_separate/001/modelParameter.info ...
element: writing instance parameter values to rawfile.

Opening the PSF file ../psf/mc1_separate/001/element.info ...
outputParameter: writing output parameter values to rawfile.

Opening the PSF file ../psf/mc1_separate/001/outputParameter.info ...
designParamVals: writing netlist parameters to rawfile.

Opening the PSFASCII file ../psf/mc1_separate/001/designParamVals.info ...
primitives: writing primitives to rawfile.

Opening the PSFASCII file ../psf/mc1_separate/001/primitives.info.primitives ...
subckts: writing subcircuits to rawfile.

Opening the PSFASCII file ../psf/mc1_separate/001/subckts.info.subckts ...
2   1.01% 

*****************************************************************************************
* 
* INFO: AMS_processOption = C35B4C3
* 
* INFO: Valid Modules  PIP VG5 HIRES
* 
*****************************************************************************************


Notice from spectre during Monte Carlo analysis `mc1'.
    V8: `period' has the unusually large value of 100 s.


***********************************************
Transient Analysis `tran': time = (0 s -> 50 s)
***********************************************

Opening the PSF file ../psf/mc1_separate/002/tran.tran.tran ...

Warning from spectre during check, during IC analysis, during transient analysis `tran', during Monte Carlo analysis `mc1'.
    WARNING (CMI-2943): Parameter checks have been ignored because the valid value for parameter 'trise' could not be found in 'C1'.
    WARNING (CMI-2943): Parameter checks have been ignored because the valid value for parameter 'trise' could not be found in 'I0.R2.CM'.
    WARNING (CMI-2943): Parameter checks have been ignored because the valid value for parameter 'trise' could not be found in 'I0.R2.CS1'.
    WARNING (CMI-2943): Parameter checks have been ignored because the valid value for parameter 'trise' could not be found in 'I0.R2.CS0'.
    WARNING (CMI-2943): Parameter checks have been ignored because the valid value for parameter 'trise' could not be found in 'I0.C3.C1'.
        Further occurrences of this warning will be suppressed.

Convergence achieved in 12 iterations.
DC simulation time: CPU = 2.54 ms, elapsed = 2.54107 ms.
Important parameter values:
    start = 0 s
    outputstart = 0 s
    stop = 50 s
    step = 50 ms
    maxstep = 500 ms
    ic = all
    useprevic = no
    skipdc = no
    reltol = 10e-06
    abstol(V) = 1 uV
    abstol(I) = 1 pA
    temp = -40 C
    tnom = 27 C
    tempeffects = all
    errpreset = conservative
    method = gear2only
    lteratio = 10
    relref = alllocal
    cmin = 0 F
    gmin = 1 pS
    rabsshort = 1 mOhm


Notice from spectre during transient analysis `tran', during Monte Carlo analysis `mc1'.
    Multithreading is disabled due to the size of the design being too small.


Output and IC/nodeset summary:
                 save   8       (current)
                 save   87      (voltage)

    tran: time = 1.331 s     (2.66 %), step = 126.4 ms     (253 m%)
    tran: time = 3.842 s     (7.68 %), step = 305.4 ms     (611 m%)
    tran: time = 6.277 s     (12.6 %), step = 491.7 ms     (983 m%)
    tran: time = 8.777 s     (17.6 %), step = 500 ms          (1 %)
    tran: time = 11.28 s     (22.6 %), step = 500 ms          (1 %)
    tran: time = 13.78 s     (27.6 %), step = 500 ms          (1 %)
    tran: time = 16.28 s     (32.6 %), step = 500 ms          (1 %)
    tran: time = 18.78 s     (37.6 %), step = 500 ms          (1 %)
    tran: time = 21.28 s     (42.6 %), step = 500 ms          (1 %)
    tran: time = 23.78 s     (47.6 %), step = 500 ms          (1 %)
    tran: time = 26.28 s     (52.6 %), step = 500 ms          (1 %)
    tran: time = 28.78 s     (57.6 %), step = 500 ms          (1 %)
    tran: time = 31.28 s     (62.6 %), step = 500 ms          (1 %)
    tran: time = 33.78 s     (67.6 %), step = 500 ms          (1 %)
    tran: time = 36.65 s     (73.3 %), step = 404.9 ms     (810 m%)
    tran: time = 38.75 s     (77.5 %), step = 6.576 ms    (13.2 m%)
    tran: time = 41.6 s      (83.2 %), step = 424.1 ms     (848 m%)
    tran: time = 43.85 s     (87.7 %), step = 472 ms       (944 m%)
    tran: time = 46.34 s     (92.7 %), step = 500 ms          (1 %)
    tran: time = 48.84 s     (97.7 %), step = 500 ms          (1 %)
Number of accepted tran steps =             662

Maximum value achieved for any signal of each quantity: 
V: V(vout_filt) = 3.3 V
I: I(V8:p) = 6.422 uA

~~~~~~~~~~~~~~~~~~~~~~~~~~~~~~~~~
Post-Transient Simulation Summary
~~~~~~~~~~~~~~~~~~~~~~~~~~~~~~~~~
   -   To further speed up simulation, consider
          add ++aps on command line
   -   Non-default settings that could significantly slow down simulation
          errpreset = conservative, default moderate
          reltol = 10e-06, default 100e-06 (conservative)
~~~~~~~~~~~~~~~~~~~~~~~~~~~~~~~~~


During simulation, the CPU load for active processors is :
         0 (11.7 %)      1 (24.8 %)      2 (100.0 %)     3 (3.2 %)
         4 (10.8 %)      5 (9.1 %)       6 (59.1 %)      7 (9.8 %)
         8 (5.2 %)       9 (8.4 %)      10 (17.2 %)     11 (8.4 %)
        12 (5.8 %)      13 (42.7 %)     14 (2.4 %)      15 (4.0 %)
        16 (8.7 %)      17 (4.0 %)      18 (19.2 %)     19 (82.1 %)
        20 (4.8 %)      21 (2.4 %)      22 (27.4 %)     23 (100.0 %)
        24 (51.2 %)     25 (24.7 %)     26 (4.8 %)      27 (4.8 %)
        28 (100.0 %)    29 (2.0 %)      30 (28.7 %)     31 (19.1 %)
        32 (8.8 %)      33 (5.2 %)      34 (5.2 %)      35 (4.0 %)
        36 (2.4 %)      37 (56.6 %)     38 (16.8 %)     39 (2.0 %)
        40 (100.0 %)    41 (4.8 %)      42 (6.0 %)      43 (5.9 %)
        44 (4.0 %)      45 (4.0 %)      46 (20.6 %)     47 (6.3 %)
        Total: 1058.7%
Initial condition solution time: CPU = 2.581 ms, elapsed = 2.58279 ms.
Intrinsic tran analysis time:    CPU = 407.317 ms, elapsed = 408.651 ms.
Total time required for tran analysis `tran': CPU = 412.287 ms, elapsed = 414.373 ms, util. = 99.5%.
Time accumulated: CPU = 1.93286 s, elapsed = 2.62027 s.
Peak resident memory used = 214 Mbytes.


Notice from spectre during transient analysis `tran', during Monte Carlo analysis `mc1'.
    34 warnings suppressed.

finalTimeOP: writing operating point information to rawfile.

Opening the PSF file ../psf/mc1_separate/002/finalTimeOP.info ...
modelParameter: writing model parameter values to rawfile.

Opening the PSF file ../psf/mc1_separate/002/modelParameter.info ...
element: writing instance parameter values to rawfile.

Opening the PSF file ../psf/mc1_separate/002/element.info ...
outputParameter: writing output parameter values to rawfile.

Opening the PSF file ../psf/mc1_separate/002/outputParameter.info ...
designParamVals: writing netlist parameters to rawfile.

Opening the PSFASCII file ../psf/mc1_separate/002/designParamVals.info ...
primitives: writing primitives to rawfile.

Opening the PSFASCII file ../psf/mc1_separate/002/primitives.info.primitives ...
subckts: writing subcircuits to rawfile.

Opening the PSFASCII file ../psf/mc1_separate/002/subckts.info.subckts ...
3   2.02% 

*****************************************************************************************
* 
* INFO: AMS_processOption = C35B4C3
* 
* INFO: Valid Modules  PIP VG5 HIRES
* 
*****************************************************************************************


Notice from spectre during Monte Carlo analysis `mc1'.
    V8: `period' has the unusually large value of 100 s.


***********************************************
Transient Analysis `tran': time = (0 s -> 50 s)
***********************************************

Opening the PSF file ../psf/mc1_separate/003/tran.tran.tran ...

Warning from spectre during check, during IC analysis, during transient analysis `tran', during Monte Carlo analysis `mc1'.
    WARNING (CMI-2943): Parameter checks have been ignored because the valid value for parameter 'trise' could not be found in 'C1'.
    WARNING (CMI-2943): Parameter checks have been ignored because the valid value for parameter 'trise' could not be found in 'I0.R2.CM'.
    WARNING (CMI-2943): Parameter checks have been ignored because the valid value for parameter 'trise' could not be found in 'I0.R2.CS1'.
    WARNING (CMI-2943): Parameter checks have been ignored because the valid value for parameter 'trise' could not be found in 'I0.R2.CS0'.
    WARNING (CMI-2943): Parameter checks have been ignored because the valid value for parameter 'trise' could not be found in 'I0.C3.C1'.
        Further occurrences of this warning will be suppressed.

Convergence achieved in 12 iterations.
DC simulation time: CPU = 2.422 ms, elapsed = 2.42305 ms.
Important parameter values:
    start = 0 s
    outputstart = 0 s
    stop = 50 s
    step = 50 ms
    maxstep = 500 ms
    ic = all
    useprevic = no
    skipdc = no
    reltol = 10e-06
    abstol(V) = 1 uV
    abstol(I) = 1 pA
    temp = -40 C
    tnom = 27 C
    tempeffects = all
    errpreset = conservative
    method = gear2only
    lteratio = 10
    relref = alllocal
    cmin = 0 F
    gmin = 1 pS
    rabsshort = 1 mOhm


Notice from spectre during transient analysis `tran', during Monte Carlo analysis `mc1'.
    Multithreading is disabled due to the size of the design being too small.


Output and IC/nodeset summary:
                 save   8       (current)
                 save   87      (voltage)

    tran: time = 1.258 s     (2.52 %), step = 104.9 ms     (210 m%)
    tran: time = 3.929 s     (7.86 %), step = 298.6 ms     (597 m%)
    tran: time = 6.32 s      (12.6 %), step = 483.8 ms     (968 m%)
    tran: time = 8.82 s      (17.6 %), step = 500 ms          (1 %)
    tran: time = 11.32 s     (22.6 %), step = 500 ms          (1 %)
    tran: time = 13.82 s     (27.6 %), step = 500 ms          (1 %)
    tran: time = 16.32 s     (32.6 %), step = 500 ms          (1 %)
    tran: time = 18.82 s     (37.6 %), step = 500 ms          (1 %)
    tran: time = 21.32 s     (42.6 %), step = 500 ms          (1 %)
    tran: time = 23.82 s     (47.6 %), step = 500 ms          (1 %)
    tran: time = 26.32 s     (52.6 %), step = 500 ms          (1 %)
    tran: time = 28.82 s     (57.6 %), step = 500 ms          (1 %)
    tran: time = 31.32 s     (62.6 %), step = 500 ms          (1 %)
    tran: time = 33.79 s     (67.6 %), step = 469.7 ms     (939 m%)
    tran: time = 36.26 s     (72.5 %), step = 24.69 ms    (49.4 m%)
    tran: time = 38.93 s     (77.9 %), step = 373.9 ms     (748 m%)
    tran: time = 41.62 s     (83.2 %), step = 476.4 ms     (953 m%)
    tran: time = 44.11 s     (88.2 %), step = 500 ms          (1 %)
    tran: time = 46.61 s     (93.2 %), step = 500 ms          (1 %)
    tran: time = 49.11 s     (98.2 %), step = 500 ms          (1 %)
Number of accepted tran steps =             668

Maximum value achieved for any signal of each quantity: 
V: V(vout_filt) = 3.3 V
I: I(V8:p) = 6.304 uA

~~~~~~~~~~~~~~~~~~~~~~~~~~~~~~~~~
Post-Transient Simulation Summary
~~~~~~~~~~~~~~~~~~~~~~~~~~~~~~~~~
   -   To further speed up simulation, consider
          add ++aps on command line
   -   Non-default settings that could significantly slow down simulation
          errpreset = conservative, default moderate
          reltol = 10e-06, default 100e-06 (conservative)
~~~~~~~~~~~~~~~~~~~~~~~~~~~~~~~~~


During simulation, the CPU load for active processors is :
         0 (11.9 %)      1 (25.0 %)      2 (99.7 %)      3 (8.1 %)
         4 (11.1 %)      5 (10.7 %)      6 (51.5 %)      7 (10.2 %)
         8 (5.4 %)       9 (8.8 %)      10 (18.1 %)     11 (9.4 %)
        12 (6.2 %)      13 (43.3 %)     14 (2.0 %)      15 (4.1 %)
        16 (7.4 %)      17 (4.3 %)      18 (16.9 %)     19 (77.6 %)
        20 (5.1 %)      21 (16.3 %)     22 (24.2 %)     23 (100.0 %)
        24 (52.3 %)     25 (36.2 %)     26 (8.4 %)      27 (5.0 %)
        28 (100.0 %)    29 (3.1 %)      30 (24.9 %)     31 (16.2 %)
        32 (7.4 %)      33 (4.7 %)      34 (5.1 %)      35 (6.8 %)
        36 (3.0 %)      37 (48.8 %)     38 (28.9 %)     39 (2.4 %)
        40 (100.0 %)    41 (5.4 %)      42 (6.1 %)      43 (9.3 %)
        44 (3.4 %)      45 (4.3 %)      46 (17.7 %)     47 (5.7 %)
        Total: 1082.6%
Initial condition solution time: CPU = 2.463 ms, elapsed = 2.46501 ms.
Intrinsic tran analysis time:    CPU = 410.65 ms, elapsed = 412.241 ms.
Total time required for tran analysis `tran': CPU = 415.394 ms, elapsed = 417.494 ms, util. = 99.5%.
Time accumulated: CPU = 2.38866 s, elapsed = 3.08975 s.
Peak resident memory used = 214 Mbytes.


Notice from spectre during transient analysis `tran', during Monte Carlo analysis `mc1'.
    34 warnings suppressed.

finalTimeOP: writing operating point information to rawfile.

Opening the PSF file ../psf/mc1_separate/003/finalTimeOP.info ...
modelParameter: writing model parameter values to rawfile.

Opening the PSF file ../psf/mc1_separate/003/modelParameter.info ...
element: writing instance parameter values to rawfile.

Opening the PSF file ../psf/mc1_separate/003/element.info ...
outputParameter: writing output parameter values to rawfile.

Opening the PSF file ../psf/mc1_separate/003/outputParameter.info ...
designParamVals: writing netlist parameters to rawfile.

Opening the PSFASCII file ../psf/mc1_separate/003/designParamVals.info ...
primitives: writing primitives to rawfile.

Opening the PSFASCII file ../psf/mc1_separate/003/primitives.info.primitives ...
subckts: writing subcircuits to rawfile.

Opening the PSFASCII file ../psf/mc1_separate/003/subckts.info.subckts ...
4   3.03% 

*****************************************************************************************
* 
* INFO: AMS_processOption = C35B4C3
* 
* INFO: Valid Modules  PIP VG5 HIRES
* 
*****************************************************************************************


Notice from spectre during Monte Carlo analysis `mc1'.
    V8: `period' has the unusually large value of 100 s.


***********************************************
Transient Analysis `tran': time = (0 s -> 50 s)
***********************************************

Opening the PSF file ../psf/mc1_separate/004/tran.tran.tran ...

Warning from spectre during check, during IC analysis, during transient analysis `tran', during Monte Carlo analysis `mc1'.
    WARNING (CMI-2943): Parameter checks have been ignored because the valid value for parameter 'trise' could not be found in 'C1'.
    WARNING (CMI-2943): Parameter checks have been ignored because the valid value for parameter 'trise' could not be found in 'I0.R2.CM'.
    WARNING (CMI-2943): Parameter checks have been ignored because the valid value for parameter 'trise' could not be found in 'I0.R2.CS1'.
    WARNING (CMI-2943): Parameter checks have been ignored because the valid value for parameter 'trise' could not be found in 'I0.R2.CS0'.
    WARNING (CMI-2943): Parameter checks have been ignored because the valid value for parameter 'trise' could not be found in 'I0.C3.C1'.
        Further occurrences of this warning will be suppressed.

Convergence achieved in 12 iterations.
DC simulation time: CPU = 2.67 ms, elapsed = 2.671 ms.
Important parameter values:
    start = 0 s
    outputstart = 0 s
    stop = 50 s
    step = 50 ms
    maxstep = 500 ms
    ic = all
    useprevic = no
    skipdc = no
    reltol = 10e-06
    abstol(V) = 1 uV
    abstol(I) = 1 pA
    temp = -40 C
    tnom = 27 C
    tempeffects = all
    errpreset = conservative
    method = gear2only
    lteratio = 10
    relref = alllocal
    cmin = 0 F
    gmin = 1 pS
    rabsshort = 1 mOhm


Notice from spectre during transient analysis `tran', during Monte Carlo analysis `mc1'.
    Multithreading is disabled due to the size of the design being too small.


Output and IC/nodeset summary:
                 save   8       (current)
                 save   87      (voltage)

    tran: time = 1.347 s     (2.69 %), step = 109.3 ms     (219 m%)
    tran: time = 3.831 s     (7.66 %), step = 290.1 ms     (580 m%)
    tran: time = 6.653 s     (13.3 %), step = 500 ms          (1 %)
    tran: time = 9.153 s     (18.3 %), step = 500 ms          (1 %)
    tran: time = 11.65 s     (23.3 %), step = 500 ms          (1 %)
    tran: time = 14.15 s     (28.3 %), step = 500 ms          (1 %)
    tran: time = 16.65 s     (33.3 %), step = 500 ms          (1 %)
    tran: time = 19.15 s     (38.3 %), step = 500 ms          (1 %)
    tran: time = 21.65 s     (43.3 %), step = 500 ms          (1 %)
    tran: time = 24.15 s     (48.3 %), step = 500 ms          (1 %)
    tran: time = 26.65 s     (53.3 %), step = 500 ms          (1 %)
    tran: time = 29.15 s     (58.3 %), step = 500 ms          (1 %)
    tran: time = 31.65 s     (63.3 %), step = 500 ms          (1 %)
    tran: time = 33.97 s     (67.9 %), step = 379.4 ms     (759 m%)
    tran: time = 36.27 s     (72.5 %), step = 25.2 ms     (50.4 m%)
    tran: time = 38.97 s     (77.9 %), step = 428.5 ms     (857 m%)
    tran: time = 41.74 s     (83.5 %), step = 494.1 ms     (988 m%)
    tran: time = 44.24 s     (88.5 %), step = 500 ms          (1 %)
    tran: time = 46.74 s     (93.5 %), step = 500 ms          (1 %)
    tran: time = 49.24 s     (98.5 %), step = 500 ms          (1 %)
Number of accepted tran steps =             672

Maximum value achieved for any signal of each quantity: 
V: V(vout_filt) = 3.3 V
I: I(V8:p) = 6.601 uA

~~~~~~~~~~~~~~~~~~~~~~~~~~~~~~~~~
Post-Transient Simulation Summary
~~~~~~~~~~~~~~~~~~~~~~~~~~~~~~~~~
   -   To further speed up simulation, consider
          add ++aps on command line
   -   Non-default settings that could significantly slow down simulation
          errpreset = conservative, default moderate
          reltol = 10e-06, default 100e-06 (conservative)
~~~~~~~~~~~~~~~~~~~~~~~~~~~~~~~~~


During simulation, the CPU load for active processors is :
         0 (11.1 %)      1 (22.7 %)      2 (99.7 %)      3 (9.9 %)
         4 (10.2 %)      5 (19.9 %)      6 (45.4 %)      7 (12.1 %)
         8 (7.0 %)       9 (9.9 %)      10 (19.4 %)     11 (13.7 %)
        12 (6.8 %)      13 (38.6 %)     14 (2.0 %)      15 (5.0 %)
        16 (7.0 %)      17 (4.0 %)      18 (15.0 %)     19 (80.3 %)
        20 (4.7 %)      21 (27.0 %)     22 (21.5 %)     23 (100.0 %)
        24 (50.0 %)     25 (44.5 %)     26 (11.0 %)     27 (4.6 %)
        28 (100.0 %)    29 (2.6 %)      30 (21.6 %)     31 (14.8 %)
        32 (7.0 %)      33 (5.0 %)      34 (4.4 %)      35 (15.4 %)
        36 (2.6 %)      37 (42.4 %)     38 (38.2 %)     39 (2.3 %)
        40 (100.0 %)    41 (5.3 %)      42 (6.1 %)      43 (15.6 %)
        44 (3.2 %)      45 (6.9 %)      46 (17.1 %)     47 (5.5 %)
        Total: 1119.1%
Initial condition solution time: CPU = 2.744 ms, elapsed = 2.74491 ms.
Intrinsic tran analysis time:    CPU = 413.445 ms, elapsed = 414.938 ms.
Total time required for tran analysis `tran': CPU = 418.773 ms, elapsed = 420.94 ms, util. = 99.5%.
Time accumulated: CPU = 2.84772 s, elapsed = 3.56371 s.
Peak resident memory used = 214 Mbytes.


Notice from spectre during transient analysis `tran', during Monte Carlo analysis `mc1'.
    34 warnings suppressed.

finalTimeOP: writing operating point information to rawfile.

Opening the PSF file ../psf/mc1_separate/004/finalTimeOP.info ...
modelParameter: writing model parameter values to rawfile.

Opening the PSF file ../psf/mc1_separate/004/modelParameter.info ...
element: writing instance parameter values to rawfile.

Opening the PSF file ../psf/mc1_separate/004/element.info ...
outputParameter: writing output parameter values to rawfile.

Opening the PSF file ../psf/mc1_separate/004/outputParameter.info ...
designParamVals: writing netlist parameters to rawfile.

Opening the PSFASCII file ../psf/mc1_separate/004/designParamVals.info ...
primitives: writing primitives to rawfile.

Opening the PSFASCII file ../psf/mc1_separate/004/primitives.info.primitives ...
subckts: writing subcircuits to rawfile.

Opening the PSFASCII file ../psf/mc1_separate/004/subckts.info.subckts ...
    mc1: iteration = 4           (3.03 %), step = 1            (1.01 %)
5   4.04% 

*****************************************************************************************
* 
* INFO: AMS_processOption = C35B4C3
* 
* INFO: Valid Modules  PIP VG5 HIRES
* 
*****************************************************************************************


Notice from spectre during Monte Carlo analysis `mc1'.
    V8: `period' has the unusually large value of 100 s.


***********************************************
Transient Analysis `tran': time = (0 s -> 50 s)
***********************************************

Opening the PSF file ../psf/mc1_separate/005/tran.tran.tran ...

Warning from spectre during check, during IC analysis, during transient analysis `tran', during Monte Carlo analysis `mc1'.
    WARNING (CMI-2943): Parameter checks have been ignored because the valid value for parameter 'trise' could not be found in 'C1'.
    WARNING (CMI-2943): Parameter checks have been ignored because the valid value for parameter 'trise' could not be found in 'I0.R2.CM'.
    WARNING (CMI-2943): Parameter checks have been ignored because the valid value for parameter 'trise' could not be found in 'I0.R2.CS1'.
    WARNING (CMI-2943): Parameter checks have been ignored because the valid value for parameter 'trise' could not be found in 'I0.R2.CS0'.
    WARNING (CMI-2943): Parameter checks have been ignored because the valid value for parameter 'trise' could not be found in 'I0.C3.C1'.
        Further occurrences of this warning will be suppressed.

Convergence achieved in 12 iterations.
DC simulation time: CPU = 2.531 ms, elapsed = 2.53177 ms.
Important parameter values:
    start = 0 s
    outputstart = 0 s
    stop = 50 s
    step = 50 ms
    maxstep = 500 ms
    ic = all
    useprevic = no
    skipdc = no
    reltol = 10e-06
    abstol(V) = 1 uV
    abstol(I) = 1 pA
    temp = -40 C
    tnom = 27 C
    tempeffects = all
    errpreset = conservative
    method = gear2only
    lteratio = 10
    relref = alllocal
    cmin = 0 F
    gmin = 1 pS
    rabsshort = 1 mOhm


Notice from spectre during transient analysis `tran', during Monte Carlo analysis `mc1'.
    Multithreading is disabled due to the size of the design being too small.


Output and IC/nodeset summary:
                 save   8       (current)
                 save   87      (voltage)

    tran: time = 1.307 s     (2.61 %), step = 123.3 ms     (247 m%)
    tran: time = 3.755 s     (7.51 %), step = 297.7 ms     (595 m%)
    tran: time = 6.627 s     (13.3 %), step = 500 ms          (1 %)
    tran: time = 9.127 s     (18.3 %), step = 500 ms          (1 %)
    tran: time = 11.63 s     (23.3 %), step = 500 ms          (1 %)
    tran: time = 14.13 s     (28.3 %), step = 500 ms          (1 %)
    tran: time = 16.63 s     (33.3 %), step = 500 ms          (1 %)
    tran: time = 19.13 s     (38.3 %), step = 500 ms          (1 %)
    tran: time = 21.63 s     (43.3 %), step = 500 ms          (1 %)
    tran: time = 24.13 s     (48.3 %), step = 500 ms          (1 %)
    tran: time = 26.63 s     (53.3 %), step = 500 ms          (1 %)
    tran: time = 29.13 s     (58.3 %), step = 500 ms          (1 %)
    tran: time = 31.63 s     (63.3 %), step = 500 ms          (1 %)
    tran: time = 34.13 s     (68.3 %), step = 500 ms          (1 %)
    tran: time = 36.5 s        (73 %), step = 405.6 ms     (811 m%)
    tran: time = 38.76 s     (77.5 %), step = 6.162 ms    (12.3 m%)
    tran: time = 41.48 s       (83 %), step = 424.5 ms     (849 m%)
    tran: time = 44.22 s     (88.4 %), step = 487.3 ms     (975 m%)
    tran: time = 46.72 s     (93.4 %), step = 500 ms          (1 %)
    tran: time = 49.22 s     (98.4 %), step = 500 ms          (1 %)
Number of accepted tran steps =             660

Maximum value achieved for any signal of each quantity: 
V: V(vout_filt) = 3.3 V
I: I(V8:p) = 6.495 uA

~~~~~~~~~~~~~~~~~~~~~~~~~~~~~~~~~
Post-Transient Simulation Summary
~~~~~~~~~~~~~~~~~~~~~~~~~~~~~~~~~
   -   To further speed up simulation, consider
          add ++aps on command line
   -   Non-default settings that could significantly slow down simulation
          errpreset = conservative, default moderate
          reltol = 10e-06, default 100e-06 (conservative)
~~~~~~~~~~~~~~~~~~~~~~~~~~~~~~~~~


During simulation, the CPU load for active processors is :
         0 (10.4 %)      1 (22.1 %)      2 (99.7 %)      3 (10.6 %)
         4 (9.5 %)       5 (18.1 %)      6 (50.3 %)      7 (11.2 %)
         8 (6.4 %)       9 (9.2 %)      10 (19.6 %)     11 (12.8 %)
        12 (8.0 %)      13 (34.2 %)     14 (1.8 %)      15 (4.4 %)
        16 (6.1 %)      17 (4.1 %)      18 (21.8 %)     19 (74.3 %)
        20 (4.4 %)      21 (24.2 %)     22 (30.7 %)     23 (100.0 %)
        24 (46.4 %)     25 (41.1 %)     26 (20.4 %)     27 (4.3 %)
        28 (100.0 %)    29 (2.6 %)      30 (26.7 %)     31 (13.5 %)
        32 (7.2 %)      33 (4.9 %)      34 (4.9 %)      35 (22.8 %)
        36 (2.8 %)      37 (37.9 %)     38 (45.1 %)     39 (2.6 %)
        40 (100.0 %)    41 (4.6 %)      42 (5.7 %)      43 (25.6 %)
        44 (3.3 %)      45 (8.7 %)      46 (15.5 %)     47 (4.8 %)
        Total: 1145.1%
Initial condition solution time: CPU = 2.58 ms, elapsed = 2.58207 ms.
Intrinsic tran analysis time:    CPU = 414.285 ms, elapsed = 415.666 ms.
Total time required for tran analysis `tran': CPU = 419.431 ms, elapsed = 421.51 ms, util. = 99.5%.
Time accumulated: CPU = 3.30797 s, elapsed = 4.03671 s.
Peak resident memory used = 214 Mbytes.


Notice from spectre during transient analysis `tran', during Monte Carlo analysis `mc1'.
    34 warnings suppressed.

finalTimeOP: writing operating point information to rawfile.

Opening the PSF file ../psf/mc1_separate/005/finalTimeOP.info ...
modelParameter: writing model parameter values to rawfile.

Opening the PSF file ../psf/mc1_separate/005/modelParameter.info ...
element: writing instance parameter values to rawfile.

Opening the PSF file ../psf/mc1_separate/005/element.info ...
outputParameter: writing output parameter values to rawfile.

Opening the PSF file ../psf/mc1_separate/005/outputParameter.info ...
designParamVals: writing netlist parameters to rawfile.

Opening the PSFASCII file ../psf/mc1_separate/005/designParamVals.info ...
primitives: writing primitives to rawfile.

Opening the PSFASCII file ../psf/mc1_separate/005/primitives.info.primitives ...
subckts: writing subcircuits to rawfile.

Opening the PSFASCII file ../psf/mc1_separate/005/subckts.info.subckts ...
    mc1: iteration = 5           (4.04 %), step = 1            (1.01 %)
6   5.05% 

*****************************************************************************************
* 
* INFO: AMS_processOption = C35B4C3
* 
* INFO: Valid Modules  PIP VG5 HIRES
* 
*****************************************************************************************


Notice from spectre during Monte Carlo analysis `mc1'.
    V8: `period' has the unusually large value of 100 s.


***********************************************
Transient Analysis `tran': time = (0 s -> 50 s)
***********************************************

Opening the PSF file ../psf/mc1_separate/006/tran.tran.tran ...

Warning from spectre during check, during IC analysis, during transient analysis `tran', during Monte Carlo analysis `mc1'.
    WARNING (CMI-2943): Parameter checks have been ignored because the valid value for parameter 'trise' could not be found in 'C1'.
    WARNING (CMI-2943): Parameter checks have been ignored because the valid value for parameter 'trise' could not be found in 'I0.R2.CM'.
    WARNING (CMI-2943): Parameter checks have been ignored because the valid value for parameter 'trise' could not be found in 'I0.R2.CS1'.
    WARNING (CMI-2943): Parameter checks have been ignored because the valid value for parameter 'trise' could not be found in 'I0.R2.CS0'.
    WARNING (CMI-2943): Parameter checks have been ignored because the valid value for parameter 'trise' could not be found in 'I0.C3.C1'.
        Further occurrences of this warning will be suppressed.

Convergence achieved in 12 iterations.
DC simulation time: CPU = 2.656 ms, elapsed = 2.65813 ms.
Important parameter values:
    start = 0 s
    outputstart = 0 s
    stop = 50 s
    step = 50 ms
    maxstep = 500 ms
    ic = all
    useprevic = no
    skipdc = no
    reltol = 10e-06
    abstol(V) = 1 uV
    abstol(I) = 1 pA
    temp = -40 C
    tnom = 27 C
    tempeffects = all
    errpreset = conservative
    method = gear2only
    lteratio = 10
    relref = alllocal
    cmin = 0 F
    gmin = 1 pS
    rabsshort = 1 mOhm


Notice from spectre during transient analysis `tran', during Monte Carlo analysis `mc1'.
    Multithreading is disabled due to the size of the design being too small.


Output and IC/nodeset summary:
                 save   8       (current)
                 save   87      (voltage)

    tran: time = 1.343 s     (2.69 %), step = 116.8 ms     (234 m%)
    tran: time = 3.98 s      (7.96 %), step = 306.8 ms     (614 m%)
    tran: time = 6.434 s     (12.9 %), step = 496.3 ms     (993 m%)
    tran: time = 8.934 s     (17.9 %), step = 500 ms          (1 %)
    tran: time = 11.43 s     (22.9 %), step = 500 ms          (1 %)
    tran: time = 13.93 s     (27.9 %), step = 500 ms          (1 %)
    tran: time = 16.43 s     (32.9 %), step = 500 ms          (1 %)
    tran: time = 18.93 s     (37.9 %), step = 500 ms          (1 %)
    tran: time = 21.43 s     (42.9 %), step = 500 ms          (1 %)
    tran: time = 23.93 s     (47.9 %), step = 500 ms          (1 %)
    tran: time = 26.43 s     (52.9 %), step = 500 ms          (1 %)
    tran: time = 28.93 s     (57.9 %), step = 500 ms          (1 %)
    tran: time = 31.43 s     (62.9 %), step = 500 ms          (1 %)
    tran: time = 33.93 s     (67.9 %), step = 500 ms          (1 %)
    tran: time = 36.38 s     (72.8 %), step = 204.7 ms     (409 m%)
    tran: time = 38.86 s     (77.7 %), step = 153.1 ms     (306 m%)
    tran: time = 41.29 s     (82.6 %), step = 444.2 ms     (888 m%)
    tran: time = 44.18 s     (88.4 %), step = 500 ms          (1 %)
    tran: time = 46.68 s     (93.4 %), step = 500 ms          (1 %)
    tran: time = 49.18 s     (98.4 %), step = 500 ms          (1 %)
Number of accepted tran steps =             663

Maximum value achieved for any signal of each quantity: 
V: V(vout_filt) = 3.3 V
I: I(V8:p) = 6.534 uA

~~~~~~~~~~~~~~~~~~~~~~~~~~~~~~~~~
Post-Transient Simulation Summary
~~~~~~~~~~~~~~~~~~~~~~~~~~~~~~~~~
   -   To further speed up simulation, consider
          add ++aps on command line
   -   Non-default settings that could significantly slow down simulation
          errpreset = conservative, default moderate
          reltol = 10e-06, default 100e-06 (conservative)
~~~~~~~~~~~~~~~~~~~~~~~~~~~~~~~~~


During simulation, the CPU load for active processors is :
         0 (9.7 %)       1 (20.2 %)      2 (99.8 %)      3 (9.7 %)
         4 (8.8 %)       5 (17.3 %)      6 (46.8 %)      7 (16.9 %)
         8 (5.8 %)       9 (8.9 %)      10 (19.8 %)     11 (12.5 %)
        12 (7.6 %)      13 (31.4 %)     14 (2.1 %)      15 (4.1 %)
        16 (5.7 %)      17 (3.9 %)      18 (29.9 %)     19 (66.8 %)
        20 (4.4 %)      21 (24.0 %)     22 (36.3 %)     23 (100.0 %)
        24 (42.7 %)     25 (37.1 %)     26 (28.6 %)     27 (4.1 %)
        28 (100.0 %)    29 (2.3 %)      30 (23.8 %)     31 (12.4 %)
        32 (6.4 %)      33 (4.6 %)      34 (4.4 %)      35 (30.0 %)
        36 (3.0 %)      37 (34.1 %)     38 (50.8 %)     39 (2.5 %)
        40 (100.0 %)    41 (4.6 %)      42 (5.5 %)      43 (29.3 %)
        44 (3.4 %)      45 (11.8 %)     46 (15.2 %)     47 (5.0 %)
        Total: 1154.1%
Initial condition solution time: CPU = 2.701 ms, elapsed = 2.70295 ms.
Intrinsic tran analysis time:    CPU = 408.586 ms, elapsed = 409.965 ms.
Total time required for tran analysis `tran': CPU = 413.921 ms, elapsed = 415.937 ms, util. = 99.5%.
Time accumulated: CPU = 3.76722 s, elapsed = 4.50888 s.
Peak resident memory used = 214 Mbytes.


Notice from spectre during transient analysis `tran', during Monte Carlo analysis `mc1'.
    34 warnings suppressed.

finalTimeOP: writing operating point information to rawfile.

Opening the PSF file ../psf/mc1_separate/006/finalTimeOP.info ...
modelParameter: writing model parameter values to rawfile.

Opening the PSF file ../psf/mc1_separate/006/modelParameter.info ...
element: writing instance parameter values to rawfile.

Opening the PSF file ../psf/mc1_separate/006/element.info ...
outputParameter: writing output parameter values to rawfile.

Opening the PSF file ../psf/mc1_separate/006/outputParameter.info ...
designParamVals: writing netlist parameters to rawfile.

Opening the PSFASCII file ../psf/mc1_separate/006/designParamVals.info ...
primitives: writing primitives to rawfile.

Opening the PSFASCII file ../psf/mc1_separate/006/primitives.info.primitives ...
subckts: writing subcircuits to rawfile.

Opening the PSFASCII file ../psf/mc1_separate/006/subckts.info.subckts ...
    mc1: iteration = 6           (5.05 %), step = 1            (1.01 %)
7   6.06% 

*****************************************************************************************
* 
* INFO: AMS_processOption = C35B4C3
* 
* INFO: Valid Modules  PIP VG5 HIRES
* 
*****************************************************************************************


Notice from spectre during Monte Carlo analysis `mc1'.
    V8: `period' has the unusually large value of 100 s.


***********************************************
Transient Analysis `tran': time = (0 s -> 50 s)
***********************************************

Opening the PSF file ../psf/mc1_separate/007/tran.tran.tran ...

Warning from spectre during check, during IC analysis, during transient analysis `tran', during Monte Carlo analysis `mc1'.
    WARNING (CMI-2943): Parameter checks have been ignored because the valid value for parameter 'trise' could not be found in 'C1'.
    WARNING (CMI-2943): Parameter checks have been ignored because the valid value for parameter 'trise' could not be found in 'I0.R2.CM'.
    WARNING (CMI-2943): Parameter checks have been ignored because the valid value for parameter 'trise' could not be found in 'I0.R2.CS1'.
    WARNING (CMI-2943): Parameter checks have been ignored because the valid value for parameter 'trise' could not be found in 'I0.R2.CS0'.
    WARNING (CMI-2943): Parameter checks have been ignored because the valid value for parameter 'trise' could not be found in 'I0.C3.C1'.
        Further occurrences of this warning will be suppressed.

Convergence achieved in 12 iterations.
DC simulation time: CPU = 2.466 ms, elapsed = 2.46596 ms.
Important parameter values:
    start = 0 s
    outputstart = 0 s
    stop = 50 s
    step = 50 ms
    maxstep = 500 ms
    ic = all
    useprevic = no
    skipdc = no
    reltol = 10e-06
    abstol(V) = 1 uV
    abstol(I) = 1 pA
    temp = -40 C
    tnom = 27 C
    tempeffects = all
    errpreset = conservative
    method = gear2only
    lteratio = 10
    relref = alllocal
    cmin = 0 F
    gmin = 1 pS
    rabsshort = 1 mOhm


Notice from spectre during transient analysis `tran', during Monte Carlo analysis `mc1'.
    Multithreading is disabled due to the size of the design being too small.


Output and IC/nodeset summary:
                 save   8       (current)
                 save   87      (voltage)

    tran: time = 1.315 s     (2.63 %), step = 120.6 ms     (241 m%)
    tran: time = 4.028 s     (8.06 %), step = 315.1 ms     (630 m%)
    tran: time = 6.537 s     (13.1 %), step = 500 ms          (1 %)
    tran: time = 9.037 s     (18.1 %), step = 500 ms          (1 %)
    tran: time = 11.54 s     (23.1 %), step = 500 ms          (1 %)
    tran: time = 14.04 s     (28.1 %), step = 500 ms          (1 %)
    tran: time = 16.54 s     (33.1 %), step = 500 ms          (1 %)
    tran: time = 19.04 s     (38.1 %), step = 500 ms          (1 %)
    tran: time = 21.54 s     (43.1 %), step = 500 ms          (1 %)
    tran: time = 24.04 s     (48.1 %), step = 500 ms          (1 %)
    tran: time = 26.54 s     (53.1 %), step = 500 ms          (1 %)
    tran: time = 29.04 s     (58.1 %), step = 500 ms          (1 %)
    tran: time = 31.54 s     (63.1 %), step = 500 ms          (1 %)
    tran: time = 34.04 s     (68.1 %), step = 500 ms          (1 %)
    tran: time = 36.34 s     (72.7 %), step = 376.6 ms     (753 m%)
    tran: time = 38.76 s     (77.5 %), step = 37.84 ms    (75.7 m%)
    tran: time = 41.32 s     (82.6 %), step = 428.4 ms     (857 m%)
    tran: time = 44.09 s     (88.2 %), step = 493.7 ms     (987 m%)
    tran: time = 46.59 s     (93.2 %), step = 500 ms          (1 %)
    tran: time = 49.09 s     (98.2 %), step = 500 ms          (1 %)
Number of accepted tran steps =             664

Maximum value achieved for any signal of each quantity: 
V: V(vout_filt) = 3.3 V
I: I(V8:p) = 6.447 uA

~~~~~~~~~~~~~~~~~~~~~~~~~~~~~~~~~
Post-Transient Simulation Summary
~~~~~~~~~~~~~~~~~~~~~~~~~~~~~~~~~
   -   To further speed up simulation, consider
          add ++aps on command line
   -   Non-default settings that could significantly slow down simulation
          errpreset = conservative, default moderate
          reltol = 10e-06, default 100e-06 (conservative)
~~~~~~~~~~~~~~~~~~~~~~~~~~~~~~~~~


During simulation, the CPU load for active processors is :
         0 (9.8 %)       1 (19.1 %)      2 (99.8 %)      3 (9.6 %)
         4 (8.5 %)       5 (16.3 %)      6 (44.4 %)      7 (22.0 %)
         8 (5.2 %)       9 (8.9 %)      10 (18.2 %)     11 (14.4 %)
        12 (8.7 %)      13 (28.5 %)     14 (2.5 %)      15 (4.5 %)
        16 (5.2 %)      17 (3.9 %)      18 (28.3 %)     19 (68.6 %)
        20 (4.2 %)      21 (22.0 %)     22 (42.3 %)     23 (100.0 %)
        24 (47.1 %)     25 (34.9 %)     26 (27.0 %)     27 (3.9 %)
        28 (100.0 %)    29 (2.3 %)      30 (21.8 %)     31 (12.0 %)
        32 (6.0 %)      33 (4.2 %)      34 (4.1 %)      35 (35.7 %)
        36 (3.3 %)      37 (33.9 %)     38 (55.3 %)     39 (11.0 %)
        40 (100.0 %)    41 (5.6 %)      42 (5.4 %)      43 (26.8 %)
        44 (3.3 %)      45 (13.2 %)     46 (14.2 %)     47 (4.7 %)
        Total: 1170.7%
Initial condition solution time: CPU = 2.511 ms, elapsed = 2.51317 ms.
Intrinsic tran analysis time:    CPU = 408.114 ms, elapsed = 409.469 ms.
Total time required for tran analysis `tran': CPU = 413.213 ms, elapsed = 415.132 ms, util. = 99.5%.
Time accumulated: CPU = 4.22135 s, elapsed = 4.9768 s.
Peak resident memory used = 214 Mbytes.


Notice from spectre during transient analysis `tran', during Monte Carlo analysis `mc1'.
    34 warnings suppressed.

finalTimeOP: writing operating point information to rawfile.

Opening the PSF file ../psf/mc1_separate/007/finalTimeOP.info ...
modelParameter: writing model parameter values to rawfile.

Opening the PSF file ../psf/mc1_separate/007/modelParameter.info ...
element: writing instance parameter values to rawfile.

Opening the PSF file ../psf/mc1_separate/007/element.info ...
outputParameter: writing output parameter values to rawfile.

Opening the PSF file ../psf/mc1_separate/007/outputParameter.info ...
designParamVals: writing netlist parameters to rawfile.

Opening the PSFASCII file ../psf/mc1_separate/007/designParamVals.info ...
primitives: writing primitives to rawfile.

Opening the PSFASCII file ../psf/mc1_separate/007/primitives.info.primitives ...
subckts: writing subcircuits to rawfile.

Opening the PSFASCII file ../psf/mc1_separate/007/subckts.info.subckts ...
    mc1: iteration = 7           (6.06 %), step = 1            (1.01 %)
8   7.07% 

*****************************************************************************************
* 
* INFO: AMS_processOption = C35B4C3
* 
* INFO: Valid Modules  PIP VG5 HIRES
* 
*****************************************************************************************


Notice from spectre during Monte Carlo analysis `mc1'.
    V8: `period' has the unusually large value of 100 s.


***********************************************
Transient Analysis `tran': time = (0 s -> 50 s)
***********************************************

Opening the PSF file ../psf/mc1_separate/008/tran.tran.tran ...

Warning from spectre during check, during IC analysis, during transient analysis `tran', during Monte Carlo analysis `mc1'.
    WARNING (CMI-2943): Parameter checks have been ignored because the valid value for parameter 'trise' could not be found in 'C1'.
    WARNING (CMI-2943): Parameter checks have been ignored because the valid value for parameter 'trise' could not be found in 'I0.R2.CM'.
    WARNING (CMI-2943): Parameter checks have been ignored because the valid value for parameter 'trise' could not be found in 'I0.R2.CS1'.
    WARNING (CMI-2943): Parameter checks have been ignored because the valid value for parameter 'trise' could not be found in 'I0.R2.CS0'.
    WARNING (CMI-2943): Parameter checks have been ignored because the valid value for parameter 'trise' could not be found in 'I0.C3.C1'.
        Further occurrences of this warning will be suppressed.

Convergence achieved in 12 iterations.
DC simulation time: CPU = 2.645 ms, elapsed = 2.64502 ms.
Important parameter values:
    start = 0 s
    outputstart = 0 s
    stop = 50 s
    step = 50 ms
    maxstep = 500 ms
    ic = all
    useprevic = no
    skipdc = no
    reltol = 10e-06
    abstol(V) = 1 uV
    abstol(I) = 1 pA
    temp = -40 C
    tnom = 27 C
    tempeffects = all
    errpreset = conservative
    method = gear2only
    lteratio = 10
    relref = alllocal
    cmin = 0 F
    gmin = 1 pS
    rabsshort = 1 mOhm


Notice from spectre during transient analysis `tran', during Monte Carlo analysis `mc1'.
    Multithreading is disabled due to the size of the design being too small.


Output and IC/nodeset summary:
                 save   8       (current)
                 save   87      (voltage)

    tran: time = 1.307 s     (2.61 %), step = 124.1 ms     (248 m%)
    tran: time = 3.771 s     (7.54 %), step = 299.5 ms     (599 m%)
    tran: time = 6.658 s     (13.3 %), step = 500 ms          (1 %)
    tran: time = 9.158 s     (18.3 %), step = 500 ms          (1 %)
    tran: time = 11.66 s     (23.3 %), step = 500 ms          (1 %)
    tran: time = 14.16 s     (28.3 %), step = 500 ms          (1 %)
    tran: time = 16.66 s     (33.3 %), step = 500 ms          (1 %)
    tran: time = 19.16 s     (38.3 %), step = 500 ms          (1 %)
    tran: time = 21.66 s     (43.3 %), step = 500 ms          (1 %)
    tran: time = 24.16 s     (48.3 %), step = 500 ms          (1 %)
    tran: time = 26.66 s     (53.3 %), step = 500 ms          (1 %)
    tran: time = 29.16 s     (58.3 %), step = 500 ms          (1 %)
    tran: time = 31.66 s     (63.3 %), step = 500 ms          (1 %)
    tran: time = 34.16 s     (68.3 %), step = 500 ms          (1 %)
    tran: time = 36.53 s     (73.1 %), step = 408.5 ms     (817 m%)
    tran: time = 38.75 s     (77.5 %), step = 2.209 ms    (4.42 m%)
    tran: time = 41.4 s      (82.8 %), step = 412.6 ms     (825 m%)
    tran: time = 44.12 s     (88.2 %), step = 483.1 ms     (966 m%)
    tran: time = 46.62 s     (93.2 %), step = 500 ms          (1 %)
    tran: time = 49.12 s     (98.2 %), step = 500 ms          (1 %)
Number of accepted tran steps =             660

Maximum value achieved for any signal of each quantity: 
V: V(vout_filt) = 3.3 V
I: I(V8:p) = 6.482 uA

~~~~~~~~~~~~~~~~~~~~~~~~~~~~~~~~~
Post-Transient Simulation Summary
~~~~~~~~~~~~~~~~~~~~~~~~~~~~~~~~~
   -   To further speed up simulation, consider
          add ++aps on command line
   -   Non-default settings that could significantly slow down simulation
          errpreset = conservative, default moderate
          reltol = 10e-06, default 100e-06 (conservative)
~~~~~~~~~~~~~~~~~~~~~~~~~~~~~~~~~


During simulation, the CPU load for active processors is :
         0 (9.4 %)       1 (17.8 %)      2 (99.8 %)      3 (9.1 %)
         4 (8.2 %)       5 (15.8 %)      6 (42.2 %)      7 (27.1 %)
         8 (6.9 %)       9 (8.7 %)      10 (17.2 %)     11 (13.3 %)
        12 (9.4 %)      13 (28.7 %)     14 (3.6 %)      15 (6.0 %)
        16 (6.2 %)      17 (3.8 %)      18 (29.0 %)     19 (71.1 %)
        20 (5.5 %)      21 (21.4 %)     22 (44.1 %)     23 (100.0 %)
        24 (51.5 %)     25 (32.0 %)     26 (24.8 %)     27 (3.8 %)
        28 (100.0 %)    29 (2.1 %)      30 (19.9 %)     31 (11.1 %)
        32 (5.5 %)      33 (4.6 %)      34 (8.1 %)      35 (33.7 %)
        36 (3.4 %)      37 (31.0 %)     38 (50.7 %)     39 (18.7 %)
        40 (100.0 %)    41 (5.1 %)      42 (5.3 %)      43 (24.9 %)
        44 (6.4 %)      45 (17.4 %)     46 (13.3 %)     47 (4.3 %)
        Total: 1182.1%
Initial condition solution time: CPU = 2.703 ms, elapsed = 2.70605 ms.
Intrinsic tran analysis time:    CPU = 405.882 ms, elapsed = 407.784 ms.
Total time required for tran analysis `tran': CPU = 411.439 ms, elapsed = 414.102 ms, util. = 99.4%.
Time accumulated: CPU = 4.67463 s, elapsed = 5.44483 s.
Peak resident memory used = 214 Mbytes.


Notice from spectre during transient analysis `tran', during Monte Carlo analysis `mc1'.
    34 warnings suppressed.

finalTimeOP: writing operating point information to rawfile.

Opening the PSF file ../psf/mc1_separate/008/finalTimeOP.info ...
modelParameter: writing model parameter values to rawfile.

Opening the PSF file ../psf/mc1_separate/008/modelParameter.info ...
element: writing instance parameter values to rawfile.

Opening the PSF file ../psf/mc1_separate/008/element.info ...
outputParameter: writing output parameter values to rawfile.

Opening the PSF file ../psf/mc1_separate/008/outputParameter.info ...
designParamVals: writing netlist parameters to rawfile.

Opening the PSFASCII file ../psf/mc1_separate/008/designParamVals.info ...
primitives: writing primitives to rawfile.

Opening the PSFASCII file ../psf/mc1_separate/008/primitives.info.primitives ...
subckts: writing subcircuits to rawfile.

Opening the PSFASCII file ../psf/mc1_separate/008/subckts.info.subckts ...
    mc1: iteration = 8           (7.07 %), step = 1            (1.01 %)
9   8.08% 

*****************************************************************************************
* 
* INFO: AMS_processOption = C35B4C3
* 
* INFO: Valid Modules  PIP VG5 HIRES
* 
*****************************************************************************************


Notice from spectre during Monte Carlo analysis `mc1'.
    V8: `period' has the unusually large value of 100 s.


***********************************************
Transient Analysis `tran': time = (0 s -> 50 s)
***********************************************

Opening the PSF file ../psf/mc1_separate/009/tran.tran.tran ...

Warning from spectre during check, during IC analysis, during transient analysis `tran', during Monte Carlo analysis `mc1'.
    WARNING (CMI-2943): Parameter checks have been ignored because the valid value for parameter 'trise' could not be found in 'C1'.
    WARNING (CMI-2943): Parameter checks have been ignored because the valid value for parameter 'trise' could not be found in 'I0.R2.CM'.
    WARNING (CMI-2943): Parameter checks have been ignored because the valid value for parameter 'trise' could not be found in 'I0.R2.CS1'.
    WARNING (CMI-2943): Parameter checks have been ignored because the valid value for parameter 'trise' could not be found in 'I0.R2.CS0'.
    WARNING (CMI-2943): Parameter checks have been ignored because the valid value for parameter 'trise' could not be found in 'I0.C3.C1'.
        Further occurrences of this warning will be suppressed.

Convergence achieved in 12 iterations.
DC simulation time: CPU = 2.417 ms, elapsed = 2.42901 ms.
Important parameter values:
    start = 0 s
    outputstart = 0 s
    stop = 50 s
    step = 50 ms
    maxstep = 500 ms
    ic = all
    useprevic = no
    skipdc = no
    reltol = 10e-06
    abstol(V) = 1 uV
    abstol(I) = 1 pA
    temp = -40 C
    tnom = 27 C
    tempeffects = all
    errpreset = conservative
    method = gear2only
    lteratio = 10
    relref = alllocal
    cmin = 0 F
    gmin = 1 pS
    rabsshort = 1 mOhm


Notice from spectre during transient analysis `tran', during Monte Carlo analysis `mc1'.
    Multithreading is disabled due to the size of the design being too small.


Output and IC/nodeset summary:
                 save   8       (current)
                 save   87      (voltage)

    tran: time = 1.275 s     (2.55 %), step = 134.6 ms     (269 m%)
    tran: time = 3.938 s     (7.88 %), step = 323.4 ms     (647 m%)
    tran: time = 6.497 s       (13 %), step = 500 ms          (1 %)
    tran: time = 8.997 s       (18 %), step = 500 ms          (1 %)
    tran: time = 11.5 s        (23 %), step = 500 ms          (1 %)
    tran: time = 14 s          (28 %), step = 500 ms          (1 %)
    tran: time = 16.5 s        (33 %), step = 500 ms          (1 %)
    tran: time = 19 s          (38 %), step = 500 ms          (1 %)
    tran: time = 21.5 s        (43 %), step = 500 ms          (1 %)
    tran: time = 24 s          (48 %), step = 500 ms          (1 %)
    tran: time = 26.5 s        (53 %), step = 500 ms          (1 %)
    tran: time = 29 s          (58 %), step = 500 ms          (1 %)
    tran: time = 31.5 s        (63 %), step = 500 ms          (1 %)
    tran: time = 34 s          (68 %), step = 500 ms          (1 %)
    tran: time = 36.5 s        (73 %), step = 500 ms          (1 %)
    tran: time = 38.79 s     (77.6 %), step = 187.7 ms     (375 m%)
    tran: time = 41.45 s     (82.9 %), step = 205.1 ms     (410 m%)
    tran: time = 43.76 s     (87.5 %), step = 447.3 ms     (895 m%)
    tran: time = 46.67 s     (93.3 %), step = 500 ms          (1 %)
    tran: time = 49.17 s     (98.3 %), step = 500 ms          (1 %)
Number of accepted tran steps =             656

Maximum value achieved for any signal of each quantity: 
V: V(vout_filt) = 3.3 V
I: I(V8:p) = 6.31 uA

~~~~~~~~~~~~~~~~~~~~~~~~~~~~~~~~~
Post-Transient Simulation Summary
~~~~~~~~~~~~~~~~~~~~~~~~~~~~~~~~~
   -   To further speed up simulation, consider
          add ++aps on command line
   -   Non-default settings that could significantly slow down simulation
          errpreset = conservative, default moderate
          reltol = 10e-06, default 100e-06 (conservative)
~~~~~~~~~~~~~~~~~~~~~~~~~~~~~~~~~


During simulation, the CPU load for active processors is :
         0 (9.1 %)       1 (16.8 %)      2 (99.8 %)      3 (10.4 %)
         4 (7.7 %)       5 (14.9 %)      6 (40.6 %)      7 (25.6 %)
         8 (14.4 %)      9 (9.4 %)      10 (16.7 %)     11 (12.5 %)
        12 (9.3 %)      13 (34.3 %)     14 (3.6 %)      15 (5.6 %)
        16 (7.3 %)      17 (3.8 %)      18 (27.9 %)     19 (73.2 %)
        20 (5.2 %)      21 (19.8 %)     22 (41.6 %)     23 (98.8 %)
        24 (54.9 %)     25 (29.9 %)     26 (22.9 %)     27 (3.8 %)
        28 (100.0 %)    29 (1.9 %)      30 (18.8 %)     31 (10.4 %)
        32 (5.2 %)      33 (4.4 %)      34 (15.5 %)     35 (31.2 %)
        36 (3.3 %)      37 (34.3 %)     38 (48.5 %)     39 (18.3 %)
        40 (100.0 %)    41 (4.7 %)      42 (4.9 %)      43 (24.6 %)
        44 (6.1 %)      45 (23.7 %)     46 (12.7 %)     47 (4.0 %)
        Total: 1192.5%
Initial condition solution time: CPU = 2.475 ms, elapsed = 2.4879 ms.
Intrinsic tran analysis time:    CPU = 402.624 ms, elapsed = 404.295 ms.
Total time required for tran analysis `tran': CPU = 407.619 ms, elapsed = 409.981 ms, util. = 99.4%.
Time accumulated: CPU = 5.1234 s, elapsed = 5.90678 s.
Peak resident memory used = 214 Mbytes.


Notice from spectre during transient analysis `tran', during Monte Carlo analysis `mc1'.
    34 warnings suppressed.

finalTimeOP: writing operating point information to rawfile.

Opening the PSF file ../psf/mc1_separate/009/finalTimeOP.info ...
modelParameter: writing model parameter values to rawfile.

Opening the PSF file ../psf/mc1_separate/009/modelParameter.info ...
element: writing instance parameter values to rawfile.

Opening the PSF file ../psf/mc1_separate/009/element.info ...
outputParameter: writing output parameter values to rawfile.

Opening the PSF file ../psf/mc1_separate/009/outputParameter.info ...
designParamVals: writing netlist parameters to rawfile.

Opening the PSFASCII file ../psf/mc1_separate/009/designParamVals.info ...
primitives: writing primitives to rawfile.

Opening the PSFASCII file ../psf/mc1_separate/009/primitives.info.primitives ...
subckts: writing subcircuits to rawfile.

Opening the PSFASCII file ../psf/mc1_separate/009/subckts.info.subckts ...
    mc1: iteration = 9           (8.08 %), step = 1            (1.01 %)
10   9.09% 

*****************************************************************************************
* 
* INFO: AMS_processOption = C35B4C3
* 
* INFO: Valid Modules  PIP VG5 HIRES
* 
*****************************************************************************************


Notice from spectre during Monte Carlo analysis `mc1'.
    V8: `period' has the unusually large value of 100 s.


***********************************************
Transient Analysis `tran': time = (0 s -> 50 s)
***********************************************

Opening the PSF file ../psf/mc1_separate/010/tran.tran.tran ...

Warning from spectre during check, during IC analysis, during transient analysis `tran', during Monte Carlo analysis `mc1'.
    WARNING (CMI-2943): Parameter checks have been ignored because the valid value for parameter 'trise' could not be found in 'C1'.
    WARNING (CMI-2943): Parameter checks have been ignored because the valid value for parameter 'trise' could not be found in 'I0.R2.CM'.
    WARNING (CMI-2943): Parameter checks have been ignored because the valid value for parameter 'trise' could not be found in 'I0.R2.CS1'.
    WARNING (CMI-2943): Parameter checks have been ignored because the valid value for parameter 'trise' could not be found in 'I0.R2.CS0'.
    WARNING (CMI-2943): Parameter checks have been ignored because the valid value for parameter 'trise' could not be found in 'I0.C3.C1'.
        Further occurrences of this warning will be suppressed.

Convergence achieved in 12 iterations.
DC simulation time: CPU = 2.459 ms, elapsed = 2.45905 ms.
Important parameter values:
    start = 0 s
    outputstart = 0 s
    stop = 50 s
    step = 50 ms
    maxstep = 500 ms
    ic = all
    useprevic = no
    skipdc = no
    reltol = 10e-06
    abstol(V) = 1 uV
    abstol(I) = 1 pA
    temp = -40 C
    tnom = 27 C
    tempeffects = all
    errpreset = conservative
    method = gear2only
    lteratio = 10
    relref = alllocal
    cmin = 0 F
    gmin = 1 pS
    rabsshort = 1 mOhm


Notice from spectre during transient analysis `tran', during Monte Carlo analysis `mc1'.
    Multithreading is disabled due to the size of the design being too small.


Output and IC/nodeset summary:
                 save   8       (current)
                 save   87      (voltage)

    tran: time = 1.33 s      (2.66 %), step = 112.4 ms     (225 m%)
    tran: time = 3.873 s     (7.75 %), step = 296.2 ms     (592 m%)
    tran: time = 6.741 s     (13.5 %), step = 500 ms          (1 %)
    tran: time = 9.241 s     (18.5 %), step = 500 ms          (1 %)
    tran: time = 11.74 s     (23.5 %), step = 500 ms          (1 %)
    tran: time = 14.24 s     (28.5 %), step = 500 ms          (1 %)
    tran: time = 16.74 s     (33.5 %), step = 500 ms          (1 %)
    tran: time = 19.24 s     (38.5 %), step = 500 ms          (1 %)
    tran: time = 21.74 s     (43.5 %), step = 500 ms          (1 %)
    tran: time = 24.24 s     (48.5 %), step = 500 ms          (1 %)
    tran: time = 26.74 s     (53.5 %), step = 500 ms          (1 %)
    tran: time = 29.24 s     (58.5 %), step = 500 ms          (1 %)
[...]


***********************************************
Transient Analysis `tran': time = (0 s -> 50 s)
***********************************************

Opening the PSF file ../psf/mc1_separate/098/tran.tran.tran ...

Warning from spectre during check, during IC analysis, during transient analysis `tran', during Monte Carlo analysis `mc1'.
    WARNING (CMI-2943): Parameter checks have been ignored because the valid value for parameter 'trise' could not be found in 'C1'.
    WARNING (CMI-2943): Parameter checks have been ignored because the valid value for parameter 'trise' could not be found in 'I0.R2.CM'.
    WARNING (CMI-2943): Parameter checks have been ignored because the valid value for parameter 'trise' could not be found in 'I0.R2.CS1'.
    WARNING (CMI-2943): Parameter checks have been ignored because the valid value for parameter 'trise' could not be found in 'I0.R2.CS0'.
    WARNING (CMI-2943): Parameter checks have been ignored because the valid value for parameter 'trise' could not be found in 'I0.C3.C1'.
        Further occurrences of this warning will be suppressed.

Convergence achieved in 12 iterations.
DC simulation time: CPU = 2.354 ms, elapsed = 2.35605 ms.
Important parameter values:
    start = 0 s
    outputstart = 0 s
    stop = 50 s
    step = 50 ms
    maxstep = 500 ms
    ic = all
    useprevic = no
    skipdc = no
    reltol = 10e-06
    abstol(V) = 1 uV
    abstol(I) = 1 pA
    temp = -40 C
    tnom = 27 C
    tempeffects = all
    errpreset = conservative
    method = gear2only
    lteratio = 10
    relref = alllocal
    cmin = 0 F
    gmin = 1 pS
    rabsshort = 1 mOhm


Notice from spectre during transient analysis `tran', during Monte Carlo analysis `mc1'.
    Multithreading is disabled due to the size of the design being too small.


Output and IC/nodeset summary:
                 save   8       (current)
                 save   87      (voltage)

    tran: time = 1.354 s     (2.71 %), step = 122.3 ms     (245 m%)
    tran: time = 3.789 s     (7.58 %), step = 296.5 ms     (593 m%)
    tran: time = 6.654 s     (13.3 %), step = 500 ms          (1 %)
    tran: time = 9.154 s     (18.3 %), step = 500 ms          (1 %)
    tran: time = 11.65 s     (23.3 %), step = 500 ms          (1 %)
    tran: time = 14.15 s     (28.3 %), step = 500 ms          (1 %)
    tran: time = 16.65 s     (33.3 %), step = 500 ms          (1 %)
    tran: time = 19.15 s     (38.3 %), step = 500 ms          (1 %)
    tran: time = 21.65 s     (43.3 %), step = 500 ms          (1 %)
    tran: time = 24.15 s     (48.3 %), step = 500 ms          (1 %)
    tran: time = 26.65 s     (53.3 %), step = 500 ms          (1 %)
    tran: time = 29.15 s     (58.3 %), step = 500 ms          (1 %)
    tran: time = 31.65 s     (63.3 %), step = 500 ms          (1 %)
    tran: time = 34.15 s     (68.3 %), step = 500 ms          (1 %)
    tran: time = 36.37 s     (72.7 %), step = 347.3 ms     (695 m%)
    tran: time = 38.75 s     (77.5 %), step = 45.63 ms    (91.3 m%)
    tran: time = 41.64 s     (83.3 %), step = 436.5 ms     (873 m%)
    tran: time = 43.98 s       (88 %), step = 494.8 ms     (990 m%)
    tran: time = 46.48 s       (93 %), step = 500 ms          (1 %)
    tran: time = 48.98 s       (98 %), step = 500 ms          (1 %)
Number of accepted tran steps =             664

Maximum value achieved for any signal of each quantity: 
V: V(vout_filt) = 3.3 V
I: I(V8:p) = 6.336 uA

~~~~~~~~~~~~~~~~~~~~~~~~~~~~~~~~~
Post-Transient Simulation Summary
~~~~~~~~~~~~~~~~~~~~~~~~~~~~~~~~~
   -   To further speed up simulation, consider
          add ++aps on command line
   -   Non-default settings that could significantly slow down simulation
          errpreset = conservative, default moderate
          reltol = 10e-06, default 100e-06 (conservative)
~~~~~~~~~~~~~~~~~~~~~~~~~~~~~~~~~


During simulation, the CPU load for active processors is :
         0 (29.2 %)      1 (20.7 %)      2 (52.5 %)      3 (22.7 %)
         4 (21.6 %)      5 (25.6 %)      6 (51.7 %)      7 (21.3 %)
         8 (37.5 %)      9 (10.9 %)     10 (11.9 %)     11 (27.0 %)
        12 (28.2 %)     13 (25.5 %)     14 (10.7 %)     15 (21.4 %)
        16 (26.1 %)     17 (15.6 %)     18 (26.8 %)     19 (31.3 %)
        20 (13.2 %)     21 (33.0 %)     22 (33.1 %)     23 (31.3 %)
        24 (29.7 %)     25 (15.7 %)     26 (15.8 %)     27 (9.3 %)
        28 (99.9 %)     29 (16.6 %)     30 (19.4 %)     31 (39.3 %)
        32 (9.2 %)      33 (23.4 %)     34 (22.5 %)     35 (19.3 %)
        36 (29.3 %)     37 (37.1 %)     38 (19.6 %)     39 (22.6 %)
        40 (100.0 %)    41 (8.3 %)      42 (24.0 %)     43 (26.6 %)
        44 (19.0 %)     45 (18.1 %)     46 (28.3 %)     47 (22.6 %)
        Total: 1304.6%
Initial condition solution time: CPU = 2.401 ms, elapsed = 2.40207 ms.
Intrinsic tran analysis time:    CPU = 407.171 ms, elapsed = 408.864 ms.
Total time required for tran analysis `tran': CPU = 412.042 ms, elapsed = 414.306 ms, util. = 99.5%.
Time accumulated: CPU = 45.8627 s, elapsed = 47.8949 s.
Peak resident memory used = 215 Mbytes.


Notice from spectre during transient analysis `tran', during Monte Carlo analysis `mc1'.
    34 warnings suppressed.

finalTimeOP: writing operating point information to rawfile.

Opening the PSF file ../psf/mc1_separate/098/finalTimeOP.info ...
modelParameter: writing model parameter values to rawfile.

Opening the PSF file ../psf/mc1_separate/098/modelParameter.info ...
element: writing instance parameter values to rawfile.

Opening the PSF file ../psf/mc1_separate/098/element.info ...
outputParameter: writing output parameter values to rawfile.

Opening the PSF file ../psf/mc1_separate/098/outputParameter.info ...
designParamVals: writing netlist parameters to rawfile.

Opening the PSFASCII file ../psf/mc1_separate/098/designParamVals.info ...
primitives: writing primitives to rawfile.

Opening the PSFASCII file ../psf/mc1_separate/098/primitives.info.primitives ...
subckts: writing subcircuits to rawfile.

Opening the PSFASCII file ../psf/mc1_separate/098/subckts.info.subckts ...
    mc1: iteration = 98            (98 %), step = 1            (1.01 %)
99  98.99% 

*****************************************************************************************
* 
* INFO: AMS_processOption = C35B4C3
* 
* INFO: Valid Modules  PIP VG5 HIRES
* 
*****************************************************************************************


Notice from spectre during Monte Carlo analysis `mc1'.
    V8: `period' has the unusually large value of 100 s.


***********************************************
Transient Analysis `tran': time = (0 s -> 50 s)
***********************************************

Opening the PSF file ../psf/mc1_separate/099/tran.tran.tran ...

Warning from spectre during check, during IC analysis, during transient analysis `tran', during Monte Carlo analysis `mc1'.
    WARNING (CMI-2943): Parameter checks have been ignored because the valid value for parameter 'trise' could not be found in 'C1'.
    WARNING (CMI-2943): Parameter checks have been ignored because the valid value for parameter 'trise' could not be found in 'I0.R2.CM'.
    WARNING (CMI-2943): Parameter checks have been ignored because the valid value for parameter 'trise' could not be found in 'I0.R2.CS1'.
    WARNING (CMI-2943): Parameter checks have been ignored because the valid value for parameter 'trise' could not be found in 'I0.R2.CS0'.
    WARNING (CMI-2943): Parameter checks have been ignored because the valid value for parameter 'trise' could not be found in 'I0.C3.C1'.
        Further occurrences of this warning will be suppressed.

Convergence achieved in 12 iterations.
DC simulation time: CPU = 2.503 ms, elapsed = 2.50411 ms.
Important parameter values:
    start = 0 s
    outputstart = 0 s
    stop = 50 s
    step = 50 ms
    maxstep = 500 ms
    ic = all
    useprevic = no
    skipdc = no
    reltol = 10e-06
    abstol(V) = 1 uV
    abstol(I) = 1 pA
    temp = -40 C
    tnom = 27 C
    tempeffects = all
    errpreset = conservative
    method = gear2only
    lteratio = 10
    relref = alllocal
    cmin = 0 F
    gmin = 1 pS
    rabsshort = 1 mOhm


Notice from spectre during transient analysis `tran', during Monte Carlo analysis `mc1'.
    Multithreading is disabled due to the size of the design being too small.


Output and IC/nodeset summary:
                 save   8       (current)
                 save   87      (voltage)

    tran: time = 1.363 s     (2.73 %), step = 118.7 ms     (237 m%)
    tran: time = 4.044 s     (8.09 %), step = 312.1 ms     (624 m%)
    tran: time = 6.536 s     (13.1 %), step = 500 ms          (1 %)
    tran: time = 9.036 s     (18.1 %), step = 500 ms          (1 %)
    tran: time = 11.54 s     (23.1 %), step = 500 ms          (1 %)
    tran: time = 14.04 s     (28.1 %), step = 500 ms          (1 %)
    tran: time = 16.54 s     (33.1 %), step = 500 ms          (1 %)
    tran: time = 19.04 s     (38.1 %), step = 500 ms          (1 %)
    tran: time = 21.54 s     (43.1 %), step = 500 ms          (1 %)
    tran: time = 24.04 s     (48.1 %), step = 500 ms          (1 %)
    tran: time = 26.54 s     (53.1 %), step = 500 ms          (1 %)
    tran: time = 29.04 s     (58.1 %), step = 500 ms          (1 %)
    tran: time = 31.54 s     (63.1 %), step = 500 ms          (1 %)
    tran: time = 34.04 s     (68.1 %), step = 500 ms          (1 %)
    tran: time = 36.29 s     (72.6 %), step = 247.4 ms     (495 m%)
    tran: time = 38.8 s      (77.6 %), step = 121.3 ms     (243 m%)
    tran: time = 41.31 s     (82.6 %), step = 442 ms       (884 m%)
    tran: time = 44.19 s     (88.4 %), step = 500 ms          (1 %)
    tran: time = 46.69 s     (93.4 %), step = 500 ms          (1 %)
    tran: time = 49.19 s     (98.4 %), step = 500 ms          (1 %)
Number of accepted tran steps =             664

Maximum value achieved for any signal of each quantity: 
V: V(vout_filt) = 3.3 V
I: I(V8:p) = 6.29 uA

~~~~~~~~~~~~~~~~~~~~~~~~~~~~~~~~~
Post-Transient Simulation Summary
~~~~~~~~~~~~~~~~~~~~~~~~~~~~~~~~~
   -   To further speed up simulation, consider
          add ++aps on command line
   -   Non-default settings that could significantly slow down simulation
          errpreset = conservative, default moderate
          reltol = 10e-06, default 100e-06 (conservative)
~~~~~~~~~~~~~~~~~~~~~~~~~~~~~~~~~


During simulation, the CPU load for active processors is :
         0 (29.0 %)      1 (20.6 %)      2 (52.1 %)      3 (23.4 %)
         4 (21.5 %)      5 (25.5 %)      6 (51.3 %)      7 (21.2 %)
         8 (37.2 %)      9 (11.3 %)     10 (11.9 %)     11 (27.3 %)
        12 (28.1 %)     13 (25.3 %)     14 (10.7 %)     15 (21.2 %)
        16 (26.0 %)     17 (15.5 %)     18 (26.6 %)     19 (31.1 %)
        20 (13.1 %)     21 (33.6 %)     22 (32.8 %)     23 (31.9 %)
        24 (30.2 %)     25 (15.6 %)     26 (15.7 %)     27 (9.3 %)
        28 (99.9 %)     29 (16.4 %)     30 (19.2 %)     31 (39.0 %)
        32 (10.0 %)     33 (23.2 %)     34 (22.3 %)     35 (19.1 %)
        36 (30.0 %)     37 (36.8 %)     38 (20.4 %)     39 (22.6 %)
        40 (100.0 %)    41 (8.3 %)      42 (23.8 %)     43 (26.4 %)
        44 (18.8 %)     45 (18.0 %)     46 (28.0 %)     47 (22.4 %)
        Total: 1303.8%
Initial condition solution time: CPU = 2.545 ms, elapsed = 2.54607 ms.
Intrinsic tran analysis time:    CPU = 408.384 ms, elapsed = 410.47 ms.
Total time required for tran analysis `tran': CPU = 413.568 ms, elapsed = 416.462 ms, util. = 99.3%.
Time accumulated: CPU = 46.3175 s, elapsed = 48.3643 s.
Peak resident memory used = 215 Mbytes.


Notice from spectre during transient analysis `tran', during Monte Carlo analysis `mc1'.
    34 warnings suppressed.

finalTimeOP: writing operating point information to rawfile.

Opening the PSF file ../psf/mc1_separate/099/finalTimeOP.info ...
modelParameter: writing model parameter values to rawfile.

Opening the PSF file ../psf/mc1_separate/099/modelParameter.info ...
element: writing instance parameter values to rawfile.

Opening the PSF file ../psf/mc1_separate/099/element.info ...
outputParameter: writing output parameter values to rawfile.

Opening the PSF file ../psf/mc1_separate/099/outputParameter.info ...
designParamVals: writing netlist parameters to rawfile.

Opening the PSFASCII file ../psf/mc1_separate/099/designParamVals.info ...
primitives: writing primitives to rawfile.

Opening the PSFASCII file ../psf/mc1_separate/099/primitives.info.primitives ...
subckts: writing subcircuits to rawfile.

Opening the PSFASCII file ../psf/mc1_separate/099/subckts.info.subckts ...
    mc1: iteration = 99            (99 %), step = 1            (1.01 %)
100 100.00% 

*****************************************************************************************
* 
* INFO: AMS_processOption = C35B4C3
* 
* INFO: Valid Modules  PIP VG5 HIRES
* 
*****************************************************************************************


Notice from spectre during Monte Carlo analysis `mc1'.
    V8: `period' has the unusually large value of 100 s.


***********************************************
Transient Analysis `tran': time = (0 s -> 50 s)
***********************************************

Opening the PSF file ../psf/mc1_separate/100/tran.tran.tran ...

Warning from spectre during check, during IC analysis, during transient analysis `tran', during Monte Carlo analysis `mc1'.
    WARNING (CMI-2943): Parameter checks have been ignored because the valid value for parameter 'trise' could not be found in 'C1'.
    WARNING (CMI-2943): Parameter checks have been ignored because the valid value for parameter 'trise' could not be found in 'I0.R2.CM'.
    WARNING (CMI-2943): Parameter checks have been ignored because the valid value for parameter 'trise' could not be found in 'I0.R2.CS1'.
    WARNING (CMI-2943): Parameter checks have been ignored because the valid value for parameter 'trise' could not be found in 'I0.R2.CS0'.
    WARNING (CMI-2943): Parameter checks have been ignored because the valid value for parameter 'trise' could not be found in 'I0.C3.C1'.
        Further occurrences of this warning will be suppressed.

Convergence achieved in 12 iterations.
DC simulation time: CPU = 2.49 ms, elapsed = 2.51293 ms.
Important parameter values:
    start = 0 s
    outputstart = 0 s
    stop = 50 s
    step = 50 ms
    maxstep = 500 ms
    ic = all
    useprevic = no
    skipdc = no
    reltol = 10e-06
    abstol(V) = 1 uV
    abstol(I) = 1 pA
    temp = -40 C
    tnom = 27 C
    tempeffects = all
    errpreset = conservative
    method = gear2only
    lteratio = 10
    relref = alllocal
    cmin = 0 F
    gmin = 1 pS
    rabsshort = 1 mOhm


Notice from spectre during transient analysis `tran', during Monte Carlo analysis `mc1'.
    Multithreading is disabled due to the size of the design being too small.


Output and IC/nodeset summary:
                 save   8       (current)
                 save   87      (voltage)

    tran: time = 1.271 s     (2.54 %), step = 113.1 ms     (226 m%)
    tran: time = 3.817 s     (7.63 %), step = 295.8 ms     (592 m%)
    tran: time = 6.679 s     (13.4 %), step = 500 ms          (1 %)
    tran: time = 9.179 s     (18.4 %), step = 500 ms          (1 %)
    tran: time = 11.68 s     (23.4 %), step = 500 ms          (1 %)
    tran: time = 14.18 s     (28.4 %), step = 500 ms          (1 %)
    tran: time = 16.68 s     (33.4 %), step = 500 ms          (1 %)
    tran: time = 19.18 s     (38.4 %), step = 500 ms          (1 %)
    tran: time = 21.68 s     (43.4 %), step = 500 ms          (1 %)
    tran: time = 24.18 s     (48.4 %), step = 500 ms          (1 %)
    tran: time = 26.68 s     (53.4 %), step = 500 ms          (1 %)
    tran: time = 29.18 s     (58.4 %), step = 500 ms          (1 %)
    tran: time = 31.68 s     (63.4 %), step = 500 ms          (1 %)
    tran: time = 34.18 s     (68.4 %), step = 500 ms          (1 %)
    tran: time = 36.48 s       (73 %), step = 255.3 ms     (511 m%)
    tran: time = 38.78 s     (77.6 %), step = 73.54 ms     (147 m%)
    tran: time = 41.36 s     (82.7 %), step = 438.5 ms     (877 m%)
    tran: time = 44.22 s     (88.4 %), step = 500 ms          (1 %)
    tran: time = 46.72 s     (93.4 %), step = 500 ms          (1 %)
    tran: time = 49.22 s     (98.4 %), step = 500 ms          (1 %)
Number of accepted tran steps =             666

Maximum value achieved for any signal of each quantity: 
V: V(vout_filt) = 3.3 V
I: I(V8:p) = 6.653 uA

~~~~~~~~~~~~~~~~~~~~~~~~~~~~~~~~~
Post-Transient Simulation Summary
~~~~~~~~~~~~~~~~~~~~~~~~~~~~~~~~~
   -   To further speed up simulation, consider
          add ++aps on command line
   -   Non-default settings that could significantly slow down simulation
          errpreset = conservative, default moderate
          reltol = 10e-06, default 100e-06 (conservative)
~~~~~~~~~~~~~~~~~~~~~~~~~~~~~~~~~


During simulation, the CPU load for active processors is :
         0 (28.8 %)      1 (20.4 %)      2 (51.6 %)      3 (24.2 %)
         4 (21.3 %)      5 (25.3 %)      6 (51.0 %)      7 (21.0 %)
         8 (36.8 %)      9 (12.2 %)     10 (11.8 %)     11 (27.1 %)
        12 (28.2 %)     13 (25.1 %)     14 (10.6 %)     15 (21.0 %)
        16 (26.0 %)     17 (15.4 %)     18 (26.5 %)     19 (30.8 %)
        20 (13.0 %)     21 (34.2 %)     22 (32.5 %)     23 (32.6 %)
        24 (30.9 %)     25 (15.5 %)     26 (15.6 %)     27 (9.2 %)
        28 (99.9 %)     29 (16.3 %)     30 (19.1 %)     31 (38.6 %)
        32 (10.9 %)     33 (22.9 %)     34 (22.1 %)     35 (18.9 %)
        36 (30.7 %)     37 (36.5 %)     38 (21.2 %)     39 (22.6 %)
        40 (100.0 %)    41 (8.2 %)      42 (23.6 %)     43 (26.2 %)
        44 (18.7 %)     45 (17.9 %)     46 (27.8 %)     47 (22.2 %)
        Total: 1303.0%
Initial condition solution time: CPU = 2.552 ms, elapsed = 2.57707 ms.
Intrinsic tran analysis time:    CPU = 409.448 ms, elapsed = 411.982 ms.
Total time required for tran analysis `tran': CPU = 414.788 ms, elapsed = 418.028 ms, util. = 99.2%.
Time accumulated: CPU = 46.7731 s, elapsed = 48.8349 s.
Peak resident memory used = 215 Mbytes.


Notice from spectre during transient analysis `tran', during Monte Carlo analysis `mc1'.
    34 warnings suppressed.

finalTimeOP: writing operating point information to rawfile.

Opening the PSF file ../psf/mc1_separate/100/finalTimeOP.info ...
modelParameter: writing model parameter values to rawfile.

Opening the PSF file ../psf/mc1_separate/100/modelParameter.info ...
element: writing instance parameter values to rawfile.

Opening the PSF file ../psf/mc1_separate/100/element.info ...
outputParameter: writing output parameter values to rawfile.

Opening the PSF file ../psf/mc1_separate/100/outputParameter.info ...
designParamVals: writing netlist parameters to rawfile.

Opening the PSFASCII file ../psf/mc1_separate/100/designParamVals.info ...
primitives: writing primitives to rawfile.

Opening the PSFASCII file ../psf/mc1_separate/100/primitives.info.primitives ...
subckts: writing subcircuits to rawfile.

Opening the PSFASCII file ../psf/mc1_separate/100/subckts.info.subckts ...
    mc1: iteration = 100          (100 %), step = 1            (1.01 %)
Total time required for montecarlo analysis `mc1': CPU = 46.3335 s, elapsed = 47.7593 s, util. = 97%.
Time accumulated: CPU = 46.8018 s, elapsed = 48.8774 s.
Peak resident memory used = 215 Mbytes.

Licensing Information:
Lic Summary:
[16:48:53.306649] Cdslmd servers:3000@lic08.ug.kth.se:29000@lic06.ug.kth.se
[16:48:53.830985] Feature usage summary:
[16:48:53.830986] Virtuoso_Multi_mode_Simulation


Aggregate audit (4:48:53 PM, Wed Apr 15, 2026):
Time used: CPU = 46.8 s, elapsed = 48.9 s, util. = 95.8%.
Time spent in licensing: elapsed = 149 ms.
Peak memory used = 215 Mbytes.
Simulation started at: 4:48:04 PM, Wed Apr 15, 2026, ended at: 4:48:53 PM, Wed Apr 15, 2026, with elapsed time (wall clock): 48.9 s.
spectre completes with 0 errors, 522 warnings, and 310 notices.
