
Spectre (R) Circuit Simulator
Version 24.1.0.288.isr5 64bit -- 3 Apr 2025
Copyright (C) 1989-2025 Cadence Design Systems, Inc. All rights reserved worldwide. Cadence and Spectre are registered trademarks of Cadence Design Systems, Inc. All others are the property of their respective holders.

Includes RSA BSAFE(R) Cryptographic or Security Protocol Software from RSA Security, Inc.

User: davidevi   Host: il2244vt26_davidevi   HostID: 11AC2C00   PID: 491534
Memory  available: 3.0744 TB  physical: 3.2467 TB
Linux   : Rocky Linux release 8.10 (Green Obsidian)
CPU Type: Intel(R) Xeon(R) CPU E7-8857 v2 @ 3.00GHz
        Socket: Processors [Frequency]
        0:       0 [1200.0],  1 [1200.0],  2 [1200.0],  3 [2798.9],  4 [2999.9]
                 5 [2783.0],  6 [1200.0],  7 [1200.0],  8 [1200.0],  9 [2999.9]
                10 [2700.0], 11 [1200.0]
        1:      12 [2999.9], 13 [1500.0], 14 [1200.0], 15 [3600.0], 16 [1200.0]
                17 [1200.0], 18 [2999.9], 19 [1200.0], 20 [2800.0], 21 [1200.0]
                22 [1200.0], 23 [1200.0]
        2:      24 [1200.0], 25 [2500.0], 26 [1200.0], 27 [2200.0], 28 [1200.0]
                29 [2700.0], 30 [2800.0], 31 [2700.0], 32 [3600.0], 33 [1200.0]
                34 [2991.5], 35 [1500.0]
        3:      36 [2900.0], 37 [1200.0], 38 [2999.9], 39 [1200.0], 40 [2999.9]
                41 [2500.0], 42 [1200.0], 43 [2500.0], 44 [1200.0], 45 [2800.0]
                46 [1200.0], 47 [3600.0]
        
System load averages (1min, 5min, 15min) : 10.4 %, 11.3 %, 12.6 %
HPC is enabled


Simulating `input.scs' on il2244vt26_davidevi at 10:12:57 AM, Tue Mar 17, 2026 (process id: 491534).
Current working directory: /home/davidevi/Desktop/myproject/Sim/ecg_pseudo_res/spectre/schematic/netlist
Command line:
    /opt/tools/cadence/installs/SPECTRE241/tools/bin/spectre -64  \
        input.scs +escchars +log ../psf/spectre.out -format psfbin  \
        +rtsf -raw ../psf +aps +mt +lqtimeout 900 -maxw 5 -maxn 5  \
        +param /opt/pdk/ams/410/spectre/ams_range.lmts -env ade  \
        +adespetkn=adespe

Licensing Information:
[10:12:58.121738] Configured Lic search path (24.01-s002): 3000@lic08.ug.kth.se:29000@lic06.ug.kth.se

Licensing Information:
[10:12:58.184522] Periodic Lic check successful

Loading /opt/tools/cadence/installs/SPECTRE241/tools.lnx86/cmi/lib/64bit/5.0/libinfineon_sh.so ...
Loading /opt/tools/cadence/installs/SPECTRE241/tools.lnx86/cmi/lib/64bit/5.0/libphilips_I_sh.so ...
Loading /opt/tools/cadence/installs/SPECTRE241/tools.lnx86/cmi/lib/64bit/5.0/libphilips_sh.so ...
Loading /opt/tools/cadence/installs/SPECTRE241/tools.lnx86/cmi/lib/64bit/5.0/libsparam_sh.so ...
Loading /opt/tools/cadence/installs/SPECTRE241/tools.lnx86/cmi/lib/64bit/5.0/libstmodels_sh.so ...

Warning from spectre.
    WARNING (SPECTRE-691): This CPU processor does not support x86 advanced vector extensions instructions. This may affect math operations and slow down the simulation.

Reading file:  /home/davidevi/Desktop/myproject/Sim/ecg_pseudo_res/spectre/schematic/netlist/input.scs
Reading file:  /opt/pdk/ams/410/spectre/ams_range.lmts

Warning from spectre during read of parameter soft limits file `/opt/pdk/ams/410/spectre/ams_range.lmts', during circuit read-in.
    WARNING (SPECTRE-8360): line 1511: `ac' is an undefined primitive device.
    WARNING (SPECTRE-8360): line 1512: `ac' is an undefined primitive device.
    WARNING (SPECTRE-8360): line 1513: `ac' is an undefined primitive device.
    WARNING (SPECTRE-8360): line 1514: `ac' is an undefined primitive device.
    WARNING (SPECTRE-8360): line 1515: `ac' is an undefined primitive device.
        Further occurrences of this warning will be suppressed.

Reading file:  /opt/tools/cadence/installs/SPECTRE241/tools.lnx86/spectre/etc/configs/spectre.cfg
Reading file:  /opt/pdk/ams/410/spectre/c35/soac/soac.scs
Reading file:  /opt/pdk/ams/410/spectre/c35/soac/processOption.scs
Reading file:  /opt/pdk/ams/410/spectre/c35/soac/process.scs
Reading file:  /opt/pdk/ams/410/spectre/c35/soac/soac.va

Warning from spectre during AHDL read-in.
    WARNING (VACOMP-2435): The environment variable CDS_AHDLCMI_ENABLE is no longer supported. Therefore, the simulator will use the default compiled C code flow.

Reading link:  /opt/tools/cadence/installs/SPECTRE241/tools.lnx86/spectre/etc/ahdl/constants.h
Reading file:  /opt/tools/cadence/installs/SPECTRE241/tools.lnx86/spectre/etc/ahdl/constants.vams
Reading link:  /opt/tools/cadence/installs/SPECTRE241/tools.lnx86/spectre/etc/ahdl/discipline.h
Reading file:  /opt/tools/cadence/installs/SPECTRE241/tools.lnx86/spectre/etc/ahdl/disciplines.vams
Reading file:  /opt/pdk/ams/410/spectre/c35/processOption/C35B4C3.scs
Reading file:  /opt/pdk/ams/410/spectre/c35/soac/cmos53.scs
Reading file:  /opt/pdk/ams/410/spectre/c35/soac/res.scs
Reading file:  /opt/pdk/ams/410/spectre/c35/soac/cap.scs
Reading file:  /opt/pdk/ams/410/spectre/c35/soac/bip.scs
Reading file:  /opt/pdk/ams/410/spectre/c35/soac/ind.scs
Reading file:  /opt/pdk/ams/410/spectre/c35/soac/esddiode.scs
Time for NDB Parsing: CPU = 410.048 ms, elapsed = 748.047 ms.
Time accumulated: CPU = 605.75 ms, elapsed = 748.05 ms.
Peak resident memory used = 197 Mbytes.

Created directory ./input.ahdlSimDB/ (775)
Created directory ./input.ahdlSimDB//3c9333c892e7ca8b855fbd0eadea8b27.modp_ahdl.ahdlcmi/ (775)
Reading file:  /home/davidevi/Desktop/myproject/Sim/ecg_vga_tb/spectre/schematic/netlist/input.ahdlSimDB/3c9333c892e7ca8b855fbd0eadea8b27.modp_ahdl.ahdlcmi/Linux-64/obj/optimize/5.0/libahdlcmi_modp_ahdl.so
Created directory ./input.ahdlSimDB//3c9333c892e7ca8b855fbd0eadea8b27.modp_ahdl.ahdlcmi/Linux-64/obj/optimize/5.0 
Copying files from directory /home/davidevi/Desktop/myproject/Sim/ecg_vga_tb/spectre/schematic/netlist/input.ahdlSimDB/3c9333c892e7ca8b855fbd0eadea8b27.modp_ahdl.ahdlcmi/Linux-64/ to directory ./input.ahdlSimDB//3c9333c892e7ca8b855fbd0eadea8b27.modp_ahdl.ahdlcmi/Linux-64/
Finished copying files from /home/davidevi/Desktop/myproject/Sim/ecg_vga_tb/spectre/schematic/netlist/input.ahdlSimDB/3c9333c892e7ca8b855fbd0eadea8b27.modp_ahdl.ahdlcmi/Linux-64/ to ./input.ahdlSimDB//3c9333c892e7ca8b855fbd0eadea8b27.modp_ahdl.ahdlcmi/Linux-64/.
The simulator has reused the existing Verilog-A libraries for this simulation run. If you do not want to use these libraries, set the 'CDS_AHDL_REUSE_LIB' environment variable to 'NO' and rerun the simulation.
Existing shared object for module modp_ahdl is up to date.
Installed compiled interface for modp_ahdl.
Time for Elaboration: CPU = 35.35 ms, elapsed = 74.9259 ms.
Time accumulated: CPU = 641.317 ms, elapsed = 823.191 ms.
Peak resident memory used = 202 Mbytes.


Notice from spectre during hierarchy flattening.
    The value 'psf' specified for the 'checklimitdest' option will no longer be supported in future releases. Use 'spectre -h' to see other recommended values for the 'checklimitdest' option.


*****************************************************************************************
* 
* INFO: AMS_processOption = C35B4C3
* 
* INFO: Valid Modules  PIP VG5 HIRES
* 
*****************************************************************************************


Time for EDB Visiting: CPU = 4.204 ms, elapsed = 5.33915 ms.
Time accumulated: CPU = 645.713 ms, elapsed = 828.722 ms.
Peak resident memory used = 205 Mbytes.

Loading /opt/tools/cadence/installs/SPECTRE241/tools.lnx86/mdl/lib/64bit/libSpectreEH_sh.so ...

Warning from spectre during initial setup.
    WARNING (SPECTRE-16460): SOAC_cvarm_vspsub:Specified subcircuit master `cvarm' was not found.
    WARNING (SPECTRE-16462): SOAC_cvarm_vspsub:Error in specification of subcircuit master. Assert is ignored.
    WARNING (SPECTRE-16460): SOAC_cvarm_vbs:Specified subcircuit master `cvarm' was not found.
    WARNING (SPECTRE-16462): SOAC_cvarm_vbs:Error in specification of subcircuit master. Assert is ignored.
    WARNING (SPECTRE-16460): SOAC_cvarm_vgb:Specified subcircuit master `cvarm' was not found.
    WARNING (SPECTRE-16462): SOAC_cvarm_vgb:Error in specification of subcircuit master. Assert is ignored.
    WARNING (SPECTRE-16460): SOAC_cvart_vspsub:Specified subcircuit master `cvart' was not found.
    WARNING (SPECTRE-16462): SOAC_cvart_vspsub:Error in specification of subcircuit master. Assert is ignored.
    WARNING (SPECTRE-16460): SOAC_cvart_vbs:Specified subcircuit master `cvart' was not found.
        Further occurrences of this warning will be suppressed.
    WARNING (SPECTRE-16462): SOAC_cvart_vbs:Error in specification of subcircuit master. Assert is ignored.
        Further occurrences of this warning will be suppressed.
Notice from spectre during initial setup.
    Ignorevaref=yes is ignored since all nodes are connected to Verilog-A modules.
Notice from spectre during topology check.
    Only one connection to the following 2 nodes:
        MP1.psub!
        MP0.psub!
Notice from spectre during initial setup.
    Multithreading is disabled due to the size of the design being too small.


Netlist title:
        // Generated for: spectre


Global user options:
         psfversion = 1.4.0
            vabstol = 1e-06
            iabstol = 1e-12
               temp = 27
           homotopy = 5
              limit = delta
         compatible = spice2
               gmin = 1e-12
             rforce = 1
           maxnotes = 5
           maxwarns = 5
             digits = 5
               cols = 80
             pivrel = 0.001
           sensfile = ../psf/sens.output
     checklimitdest = psf
     enable_pre_ver = yes
      ignorezerovar = yes
               save = allpub
             reltol = 0.0001
               tnom = 27
             scalem = 1
              scale = 1

Scoped user options:

Circuit inventory:
              nodes 4
            bsim3v3 2     
          modp_ahdl 2     
            vsource 1     

Analysis and control statement inventory:
                 dc 1     
               info 6     

Output statements:
             .probe 0     
           .measure 0     
               save 1     

Design checks inventory:
          paramtest 3     
             assert 175   


Notice from spectre during initial setup.
    APS enabled.
    72 warnings suppressed.

Time for parsing: CPU = 12.869 ms, elapsed = 583.091 ms.
Time accumulated: CPU = 658.731 ms, elapsed = 1.41196 s.
Peak resident memory used = 210 Mbytes.

~~~~~~~~~~~~~~~~~~~~~~
Pre-Simulation Summary
~~~~~~~~~~~~~~~~~~~~~~
   -   (APS) Multi-threading. The recommended number of threads is 1, consider adding +mt=1 on command line.
~~~~~~~~~~~~~~~~~~~~~~

********************************
DC Analysis `dc': VIN = (0 -> 1)
********************************

Notice from spectre during DC analysis `dc'.
    No checklimit analysis defined for asserts. A default checklimit analysis 'SpectreChecklimitAnal' has been created with all asserts enabled.


Opening the PSF file ../psf/dc.dc ...
Important parameter values:
    reltol = 100e-06
    abstol(V) = 1 uV
    abstol(I) = 1 pA
    temp = 27 C
    tnom = 27 C
    tempeffects = all
    gmindc = 1 pS
    rabsshort = 1 mOhm
    dc: VIN = 100e-03       (10 %), step = 100e-03        (10 %)
    dc: VIN = 200e-03       (20 %), step = 100e-03        (10 %)
    dc: VIN = 300e-03       (30 %), step = 100e-03        (10 %)
    dc: VIN = 400e-03       (40 %), step = 100e-03        (10 %)
    dc: VIN = 500e-03       (50 %), step = 100e-03        (10 %)
    dc: VIN = 600e-03       (60 %), step = 100e-03        (10 %)
    dc: VIN = 700e-03       (70 %), step = 100e-03        (10 %)
    dc: VIN = 800e-03       (80 %), step = 100e-03        (10 %)
    dc: VIN = 900e-03       (90 %), step = 100e-03        (10 %)
SOAC: MP1.soac_m1       modp V(D,B): FORWARD_DIODE@ -1e+06us ;
    dc: VIN = 1            (100 %), step = 100e-03        (10 %)

Maximum value achieved for any signal of each quantity: 
V: V(VIN) = 1 V
I: I(V0:p) = 308.1 pA

Opening the PSF file ../psf/dcViolations.violations ...
DC simulation time: CPU = 91.025 ms, elapsed = 97.2419 ms.

Notice from spectre at VIN = 1 during DC analysis `dc'.
    The value of parameter 'VIN' has been reset to the original value 0.

Total time required for dc analysis `dc': CPU = 91.191 ms, elapsed = 97.3971 ms, util. = 93.6%.
Time accumulated: CPU = 774.146 ms, elapsed = 1.5347 s.
Peak resident memory used = 214 Mbytes.

modelParameter: writing model parameter values to rawfile.

Opening the PSF file ../psf/modelParameter.info ...
element: writing instance parameter values to rawfile.

Opening the PSF file ../psf/element.info ...
outputParameter: writing output parameter values to rawfile.

Opening the PSF file ../psf/outputParameter.info ...
designParamVals: writing netlist parameters to rawfile.

Opening the PSFASCII file ../psf/designParamVals.info ...
primitives: writing primitives to rawfile.

Opening the PSFASCII file ../psf/primitives.info.primitives ...
subckts: writing subcircuits to rawfile.

Opening the PSFASCII file ../psf/subckts.info.subckts ...
Licensing Information:
Lic Summary:
[10:12:59.489433] Cdslmd servers:3000@lic08.ug.kth.se:29000@lic06.ug.kth.se
[10:12:59.489472] Feature usage summary:
[10:12:59.489473] Virtuoso_Multi_mode_Simulation


Aggregate audit (10:12:59 AM, Tue Mar 17, 2026):
Time used: CPU = 795 ms, elapsed = 1.56 s, util. = 50.9%.
Time spent in licensing: elapsed = 164 ms, percentage of total = 10.5%.
Peak memory used = 216 Mbytes.
Simulation started at: 10:12:57 AM, Tue Mar 17, 2026, ended at: 10:12:59 AM, Tue Mar 17, 2026, with elapsed time (wall clock): 1.56 s.
spectre completes with 0 errors, 17 warnings, and 9 notices.
