
Spectre (R) Circuit Simulator
Version 24.1.0.288.isr5 64bit -- 3 Apr 2025
Copyright (C) 1989-2025 Cadence Design Systems, Inc. All rights reserved worldwide. Cadence and Spectre are registered trademarks of Cadence Design Systems, Inc. All others are the property of their respective holders.

Includes RSA BSAFE(R) Cryptographic or Security Protocol Software from RSA Security, Inc.

User: davidevi   Host: il2244vt26_davidevi   HostID: 11AC2C00   PID: 1069164
Memory  available: 3.0280 TB  physical: 3.2467 TB
Linux   : Rocky Linux release 8.10 (Green Obsidian)
CPU Type: Intel(R) Xeon(R) CPU E7-8857 v2 @ 3.00GHz
        Socket: Processors [Frequency]
        0:       0 [3392.4],  1 [3600.0],  2 [3392.0],  3 [2400.0],  4 [3600.0]
                 5 [3600.0],  6 [3600.0],  7 [3391.4],  8 [1200.0],  9 [2600.0]
                10 [3391.1], 11 [3600.0]
        1:      12 [3399.9], 13 [3399.9], 14 [3600.0], 15 [3600.0], 16 [3600.0]
                17 [3600.0], 18 [3399.9], 19 [3600.0], 20 [3600.0], 21 [3600.0]
                22 [3300.0], 23 [3399.5]
        2:      24 [3600.0], 25 [3399.9], 26 [3600.0], 27 [3399.9], 28 [3600.0]
                29 [3600.0], 30 [3399.9], 31 [3600.0], 32 [3399.9], 33 [3399.9]
                34 [3600.0], 35 [3500.0]
        3:      36 [3382.3], 37 [3600.0], 38 [3600.0], 39 [3366.1], 40 [3382.4]
                41 [3600.0], 42 [3384.7], 43 [3600.0], 44 [3382.0], 45 [3600.0]
                46 [3600.0], 47 [3600.0]
        
System load averages (1min, 5min, 15min) : 37.1 %, 31.0 %, 24.8 %
HPC is enabled


Simulating `input.scs' on il2244vt26_davidevi at 9:36:35 AM, Thur Apr 16, 2026 (process id: 1069164).
Current working directory: /home/davidevi/Desktop/myproject/Sim/VGA/VGA_1_wakeup_tb/adexl/results/data/MonteCarlo.2/1/wakeup_MC/groupRunDataDir/netlist
Command line:
    /opt/tools/cadence/installs/SPECTRE241/tools/bin/spectre -64  \
        input.scs +escchars +log ../psf/spectre.out -format psfbin  \
        +rtsf -raw ../psf +aps +mt +lqtimeout 900 -maxw 5 -maxn 5  \
        +param /opt/pdk/ams/410/spectre/ams_range.lmts -env ade  \
        -ahdllibdir  \
        /home/davidevi/Desktop/myproject/Sim/VGA/VGA_1_wakeup_tb/adexl/results/data/MonteCarlo.2/sharedData/Job487/ahdl/input.ahdlSimDB  \
        +logstatus  \
        +adespetkn=0001089D13A302B663E41FB550AF0DF415A679A322D5069144BF588C12F604E07EF416DC01A319B562BB63D355F613BF45A36AB65EFF45BB41CD0FE013DB4F9200F179D15D9175FF34986BDD0AF002BA50FD7FD707E002A700AC1C8013FB4DE60EAD79D12EF874D3349879D118F874D334981031B55AD9715D78000036A7

Simulation Id: glwof2uU1h0bBX4i
Licensing Information:
[09:36:35.121810] Configured Lic search path (24.01-s002): 3000@lic08.ug.kth.se:29000@lic06.ug.kth.se

Licensing Information:
[09:36:35.468585] Periodic Lic check successful

Loading /opt/tools/cadence/installs/SPECTRE241/tools.lnx86/cmi/lib/64bit/5.0/libinfineon_sh.so ...
Loading /opt/tools/cadence/installs/SPECTRE241/tools.lnx86/cmi/lib/64bit/5.0/libphilips_I_sh.so ...
Loading /opt/tools/cadence/installs/SPECTRE241/tools.lnx86/cmi/lib/64bit/5.0/libphilips_sh.so ...
Loading /opt/tools/cadence/installs/SPECTRE241/tools.lnx86/cmi/lib/64bit/5.0/libsparam_sh.so ...
Loading /opt/tools/cadence/installs/SPECTRE241/tools.lnx86/cmi/lib/64bit/5.0/libstmodels_sh.so ...

Warning from spectre.
    WARNING (SPECTRE-691): This CPU processor does not support x86 advanced vector extensions instructions. This may affect math operations and slow down the simulation.

Reading file:  /home/davidevi/Desktop/myproject/Sim/VGA/VGA_1_wakeup_tb/adexl/results/data/MonteCarlo.2/1/wakeup_MC/groupRunDataDir/netlist/input.scs
Reading file:  /opt/pdk/ams/410/spectre/ams_range.lmts

Warning from spectre during read of parameter soft limits file `/opt/pdk/ams/410/spectre/ams_range.lmts', during circuit read-in.
    WARNING (SPECTRE-8360): line 1511: `ac' is an undefined primitive device.
    WARNING (SPECTRE-8360): line 1512: `ac' is an undefined primitive device.
    WARNING (SPECTRE-8360): line 1513: `ac' is an undefined primitive device.
    WARNING (SPECTRE-8360): line 1514: `ac' is an undefined primitive device.
    WARNING (SPECTRE-8360): line 1515: `ac' is an undefined primitive device.
        Further occurrences of this warning will be suppressed.

Reading file:  /opt/tools/cadence/installs/SPECTRE241/tools.lnx86/spectre/etc/configs/spectre.cfg
Reading file:  /opt/pdk/ams/410/spectre/c35/soac/soac.scs
Reading file:  /opt/pdk/ams/410/spectre/c35/soac/processOption.scs
Reading file:  /opt/pdk/ams/410/spectre/c35/soac/process.scs
Reading file:  /opt/pdk/ams/410/spectre/c35/soac/soac.va

Warning from spectre during AHDL read-in.
    WARNING (VACOMP-2435): The environment variable CDS_AHDLCMI_ENABLE is no longer supported. Therefore, the simulator will use the default compiled C code flow.

Reading link:  /opt/tools/cadence/installs/SPECTRE241/tools.lnx86/spectre/etc/ahdl/constants.h
Reading file:  /opt/tools/cadence/installs/SPECTRE241/tools.lnx86/spectre/etc/ahdl/constants.vams
Reading link:  /opt/tools/cadence/installs/SPECTRE241/tools.lnx86/spectre/etc/ahdl/discipline.h
Reading file:  /opt/tools/cadence/installs/SPECTRE241/tools.lnx86/spectre/etc/ahdl/disciplines.vams
Reading file:  /opt/pdk/ams/410/spectre/c35/processOption/C35B4C3.scs
Reading file:  /opt/pdk/ams/410/spectre/c35/soac/cmos53.scs
Reading file:  /opt/pdk/ams/410/spectre/c35/soac/res.scs
Reading file:  /opt/pdk/ams/410/spectre/c35/soac/cap.scs
Reading file:  /opt/pdk/ams/410/spectre/c35/soac/bip.scs
Reading file:  /opt/pdk/ams/410/spectre/c35/soac/ind.scs
Reading file:  /opt/pdk/ams/410/spectre/c35/soac/esddiode.scs
Time for NDB Parsing: CPU = 167.566 ms, elapsed = 258.189 ms.
Time accumulated: CPU = 349.82 ms, elapsed = 258.191 ms.
Peak resident memory used = 175 Mbytes.

Existing shared object for module modn_ahdl is up to date.
Installed compiled interface for modn_ahdl.
Existing shared object for module modp_ahdl is up to date.
Installed compiled interface for modp_ahdl.
Existing shared object for module cpoly_ahdl is up to date.
Installed compiled interface for cpoly_ahdl.
Existing shared object for module rpolyh_ahdl is up to date.
Installed compiled interface for rpolyh_ahdl.
Opening directory /home/davidevi/Desktop/myproject/Sim/VGA/VGA_1_wakeup_tb/adexl/results/data/MonteCarlo.2/sharedData/Job487/ahdl/input.ahdlSimDB/input.ahdlSimDB/ (775)
Created directory /home/davidevi/Desktop/myproject/Sim/VGA/VGA_1_wakeup_tb/adexl/results/data/MonteCarlo.2/sharedData/Job487/ahdl/input.ahdlSimDB/input.ahdlSimDB//bsource_fcab9d.va.bsource_fcab9d.ahdlcmi/ (775)
Reading file:  /home/davidevi/Desktop/myproject/Sim/ECG_IA/ecg_vga_tb/adexl/results/data/MonteCarlo.3/sharedData/Job173/ahdl/input.ahdlSimDB/input.ahdlSimDB/bsource_fcab9d.va.bsource_fcab9d.ahdlcmi/Linux-64/obj/optimize/5.0/libahdlcmi_bsource_fcab9d.so
Created directory /home/davidevi/Desktop/myproject/Sim/VGA/VGA_1_wakeup_tb/adexl/results/data/MonteCarlo.2/sharedData/Job487/ahdl/input.ahdlSimDB/input.ahdlSimDB//bsource_fcab9d.va.bsource_fcab9d.ahdlcmi/Linux-64/obj/optimize/5.0 
Copying files from directory /home/davidevi/Desktop/myproject/Sim/ECG_IA/ecg_vga_tb/adexl/results/data/MonteCarlo.3/sharedData/Job173/ahdl/input.ahdlSimDB/input.ahdlSimDB/bsource_fcab9d.va.bsource_fcab9d.ahdlcmi/Linux-64/ to directory /home/davidevi/Desktop/myproject/Sim/VGA/VGA_1_wakeup_tb/adexl/results/data/MonteCarlo.2/sharedData/Job487/ahdl/input.ahdlSimDB/input.ahdlSimDB//bsource_fcab9d.va.bsource_fcab9d.ahdlcmi/Linux-64/
Finished copying files from /home/davidevi/Desktop/myproject/Sim/ECG_IA/ecg_vga_tb/adexl/results/data/MonteCarlo.3/sharedData/Job173/ahdl/input.ahdlSimDB/input.ahdlSimDB/bsource_fcab9d.va.bsource_fcab9d.ahdlcmi/Linux-64/ to /home/davidevi/Desktop/myproject/Sim/VGA/VGA_1_wakeup_tb/adexl/results/data/MonteCarlo.2/sharedData/Job487/ahdl/input.ahdlSimDB/input.ahdlSimDB//bsource_fcab9d.va.bsource_fcab9d.ahdlcmi/Linux-64/.
The simulator has reused the existing Verilog-A libraries for this simulation run. If you do not want to use these libraries, set the 'CDS_AHDL_REUSE_LIB' environment variable to 'NO' and rerun the simulation.
Existing shared object for module bsource_fcab9d is up to date.
Installed compiled interface for bsource_fcab9d.
Time for Elaboration: CPU = 206.342 ms, elapsed = 347.801 ms.
Time accumulated: CPU = 556.297 ms, elapsed = 606.126 ms.
Peak resident memory used = 191 Mbytes.


Notice from spectre during hierarchy flattening.
    The value 'psf' specified for the 'checklimitdest' option will no longer be supported in future releases. Use 'spectre -h' to see other recommended values for the 'checklimitdest' option.


*****************************************************************************************
* 
* INFO: AMS_processOption = C35B4C3
* 
* INFO: Valid Modules  PIP VG5 HIRES
* 
*****************************************************************************************


Notice from spectre during hierarchy flattening.
    V8: `period' has the unusually large value of 100 s.


Time for EDB Visiting: CPU = 9.118 ms, elapsed = 13.448 ms.
Time accumulated: CPU = 565.559 ms, elapsed = 619.718 ms.
Peak resident memory used = 194 Mbytes.

Loading /opt/tools/cadence/installs/SPECTRE241/tools.lnx86/mdl/lib/64bit/libSpectreEH_sh.so ...

Warning from spectre during initial setup.
    WARNING (SPECTRE-16460): SOAC_cvarm_vspsub:Specified subcircuit master `cvarm' was not found.
    WARNING (SPECTRE-16462): SOAC_cvarm_vspsub:Error in specification of subcircuit master. Assert is ignored.
    WARNING (SPECTRE-16460): SOAC_cvarm_vbs:Specified subcircuit master `cvarm' was not found.
    WARNING (SPECTRE-16462): SOAC_cvarm_vbs:Error in specification of subcircuit master. Assert is ignored.
    WARNING (SPECTRE-16460): SOAC_cvarm_vgb:Specified subcircuit master `cvarm' was not found.
    WARNING (SPECTRE-16462): SOAC_cvarm_vgb:Error in specification of subcircuit master. Assert is ignored.
    WARNING (SPECTRE-16460): SOAC_cvart_vspsub:Specified subcircuit master `cvart' was not found.
    WARNING (SPECTRE-16462): SOAC_cvart_vspsub:Error in specification of subcircuit master. Assert is ignored.
    WARNING (SPECTRE-16460): SOAC_cvart_vbs:Specified subcircuit master `cvart' was not found.
        Further occurrences of this warning will be suppressed.
    WARNING (SPECTRE-16462): SOAC_cvart_vbs:Error in specification of subcircuit master. Assert is ignored.
        Further occurrences of this warning will be suppressed.
Notice from spectre during topology check.
    Only one connection to the following 54 nodes:
        I0.MN6.psub!
        I0.MN5.psub!
        I0.MN4.psub!
        I0.MN3.psub!
        I0.MN2.psub!
        Further occurrences of this notice will be suppressed.
Notice from spectre during initial setup.
    Multithreading is disabled due to the size of the design being too small.


Netlist title:
        // Point Netlist Generated on: Apr 16 09:36:35 2026


Global user options:
         psfversion = 1.4.0
            vabstol = 1e-06
            iabstol = 1e-12
               temp = 27
           homotopy = 5
              limit = delta
         compatible = spice2
               gmin = 1e-12
             rforce = 1
           maxnotes = 5
           maxwarns = 5
             digits = 5
               cols = 80
             pivrel = 0.001
           sensfile = ../psf/sens.output
     checklimitdest = psf
     enable_pre_ver = yes
      ignorezerovar = yes
               save = allpub
             reltol = 0.0001
               tnom = 27
             scalem = 1
              scale = 1

Scoped user options:

Circuit inventory:
              nodes 88
            bsim3v3 35    
     bsource_fcab9d 2     
          capacitor 38    
         cpoly_ahdl 17    
            isource 1     
          modn_ahdl 19    
          modp_ahdl 16    
           resistor 1     
        rpolyh_ahdl 2     
            vsource 8     

Analysis and control statement inventory:
               info 7     
         montecarlo 1     
               tran 1     

Output statements:
             .probe 0     
           .measure 0     
               save 0     

Design checks inventory:
          paramtest 55    
             assert 175   


Notice from spectre during initial setup.
    APS enabled.
    1 notice suppressed.
    72 warnings suppressed.

Time for parsing: CPU = 16.847 ms, elapsed = 666.614 ms.
Time accumulated: CPU = 582.534 ms, elapsed = 1.28646 s.
Peak resident memory used = 200 Mbytes.

~~~~~~~~~~~~~~~~~~~~~~
Pre-Simulation Summary
~~~~~~~~~~~~~~~~~~~~~~
   -   (APS) Multi-threading. The recommended number of threads is 1, consider adding +mt=1 on command line.
~~~~~~~~~~~~~~~~~~~~~~

*************************************************
Monte Carlo Analysis `mc1': iteration = (1 -> 25)
*************************************************
Important parameter values:
    seed = 12345
    sampling = lds
    variations = all
    firstrun = 1
    numruns = 25
    nullmfactorcorrelation = no
    donominal = yes
    method = standard

**** Performing nominal run for `mc1'

Notice from spectre during transient analysis `tran', during Monte Carlo analysis `mc1'.
    No checklimit analysis defined for asserts. A default checklimit analysis 'SpectreChecklimitAnal' has been created with all asserts enabled.


***********************************************
Transient Analysis `tran': time = (0 s -> 50 s)
***********************************************

Warning from spectre during check, during IC analysis, during transient analysis `tran', during Monte Carlo analysis `mc1'.
    WARNING (CMI-2943): Parameter checks have been ignored because the valid value for parameter 'trise' could not be found in 'C1'.
    WARNING (CMI-2943): Parameter checks have been ignored because the valid value for parameter 'trise' could not be found in 'I0.R2.CM'.
    WARNING (CMI-2943): Parameter checks have been ignored because the valid value for parameter 'trise' could not be found in 'I0.R2.CS1'.
    WARNING (CMI-2943): Parameter checks have been ignored because the valid value for parameter 'trise' could not be found in 'I0.R2.CS0'.
    WARNING (CMI-2943): Parameter checks have been ignored because the valid value for parameter 'trise' could not be found in 'I0.C8<3>.C1'.
        Further occurrences of this warning will be suppressed.

Convergence achieved in 12 iterations.
DC simulation time: CPU = 2.517 ms, elapsed = 2.51794 ms.

Opening the PSF file ../psf/nom/tran.tran.tran ...
Important parameter values:
    start = 0 s
    outputstart = 0 s
    stop = 50 s
    step = 50 ms
    maxstep = 500 ms
    ic = all
    useprevic = no
    skipdc = no
    reltol = 10e-06
    abstol(V) = 1 uV
    abstol(I) = 1 pA
    temp = 27 C
    tnom = 27 C
    tempeffects = all
    errpreset = conservative
    method = gear2only
    lteratio = 10
    relref = alllocal
    cmin = 0 F
    gmin = 1 pS
    rabsshort = 1 mOhm


Notice from spectre during transient analysis `tran', during Monte Carlo analysis `mc1'.
    Multithreading is disabled due to the size of the design being too small.


Output and IC/nodeset summary:
                 save   8       (current)
                 save   87      (voltage)

    tran: time = 1.335 s     (2.67 %), step = 99.11 ms     (198 m%)
    tran: time = 3.799 s      (7.6 %), step = 336.1 ms     (672 m%)
    tran: time = 6.49 s        (13 %), step = 500 ms          (1 %)
    tran: time = 8.99 s        (18 %), step = 500 ms          (1 %)
    tran: time = 11.49 s       (23 %), step = 500 ms          (1 %)
    tran: time = 13.99 s       (28 %), step = 500 ms          (1 %)
    tran: time = 16.49 s       (33 %), step = 500 ms          (1 %)
    tran: time = 18.99 s       (38 %), step = 500 ms          (1 %)
    tran: time = 21.49 s       (43 %), step = 500 ms          (1 %)
    tran: time = 23.99 s       (48 %), step = 500 ms          (1 %)
    tran: time = 26.49 s       (53 %), step = 500 ms          (1 %)
    tran: time = 28.99 s       (58 %), step = 500 ms          (1 %)
    tran: time = 31.49 s       (63 %), step = 500 ms          (1 %)
    tran: time = 33.99 s       (68 %), step = 500 ms          (1 %)
    tran: time = 36.49 s       (73 %), step = 500 ms          (1 %)
    tran: time = 38.99 s       (78 %), step = 500 ms          (1 %)
    tran: time = 41.49 s       (83 %), step = 500 ms          (1 %)
    tran: time = 43.99 s       (88 %), step = 500 ms          (1 %)
    tran: time = 46.49 s       (93 %), step = 500 ms          (1 %)
    tran: time = 48.99 s       (98 %), step = 500 ms          (1 %)
Number of accepted tran steps =             733

Maximum value achieved for any signal of each quantity: 
V: V(S<0>) = 3.3 V
I: I(V8:p) = 6.457 uA

~~~~~~~~~~~~~~~~~~~~~~~~~~~~~~~~~
Post-Transient Simulation Summary
~~~~~~~~~~~~~~~~~~~~~~~~~~~~~~~~~
   -   To further speed up simulation, consider
          add ++aps on command line
   -   Non-default settings that could significantly slow down simulation
          errpreset = conservative, default moderate
          reltol = 10e-06, default 100e-06 (conservative)
~~~~~~~~~~~~~~~~~~~~~~~~~~~~~~~~~


During simulation, the CPU load for active processors is :
         0 (10.6 %)      1 (39.6 %)      2 (25.6 %)      3 (28.2 %)
         4 (47.3 %)      5 (46.9 %)      6 (6.8 %)       7 (100.0 %)
         8 (4.4 %)       9 (31.7 %)     10 (99.4 %)     11 (3.7 %)
        12 (34.3 %)     13 (69.1 %)     14 (27.8 %)     15 (26.4 %)
        16 (34.1 %)     17 (97.0 %)     18 (10.9 %)     19 (42.3 %)
        20 (19.1 %)     21 (31.4 %)     22 (29.6 %)     23 (21.0 %)
        24 (14.6 %)     25 (87.0 %)     26 (16.7 %)     27 (57.7 %)
        28 (61.5 %)     29 (63.0 %)     30 (45.5 %)     31 (8.6 %)
        32 (93.9 %)     33 (68.1 %)     34 (3.8 %)      35 (13.8 %)
        36 (100.0 %)    37 (7.6 %)      38 (13.0 %)     39 (20.0 %)
        40 (100.0 %)    41 (19.1 %)     42 (16.1 %)     43 (70.1 %)
        44 (61.7 %)     45 (9.4 %)      46 (30.6 %)     47 (8.6 %)
        Total: 1877.9%
Initial condition solution time: CPU = 2.554 ms, elapsed = 2.55609 ms.
Intrinsic tran analysis time:    CPU = 387.648 ms, elapsed = 388.948 ms.
Total time required for tran analysis `tran': CPU = 467.202 ms, elapsed = 471.649 ms, util. = 99.1%.
Time accumulated: CPU = 1.07289 s, elapsed = 1.78262 s.
Peak resident memory used = 211 Mbytes.


Notice from spectre during transient analysis `tran', during Monte Carlo analysis `mc1'.
    34 warnings suppressed.

finalTimeOP: writing operating point information to rawfile.

Opening the PSF file ../psf/nom/finalTimeOP.info ...
modelParameter: writing model parameter values to rawfile.

Opening the PSF file ../psf/nom/modelParameter.info ...
element: writing instance parameter values to rawfile.

Opening the PSF file ../psf/nom/element.info ...
outputParameter: writing output parameter values to rawfile.

Opening the PSF file ../psf/nom/outputParameter.info ...
designParamVals: writing netlist parameters to rawfile.

Opening the PSFASCII file ../psf/nom/designParamVals.info ...
primitives: writing primitives to rawfile.

Opening the PSFASCII file ../psf/nom/primitives.info.primitives ...
subckts: writing subcircuits to rawfile.

Opening the PSFASCII file ../psf/nom/subckts.info.subckts ...
Opening iteration number and data-directory mapping file:  /home/davidevi/Desktop/myproject/Sim/VGA/VGA_1_wakeup_tb/adexl/results/data/MonteCarlo.2/1/wakeup_MC/groupRunDataDir/netlist/../psf/mc1.mapping

Statistical parameters:
    Defined process parameters: 629
    Defined mismatch parameters (subckt based): 86
    Non-referenced mismatch parameters: 80
    Number of random variables: 718
    Gaussian truncation for process parameters: 4.00 sigma
    Gaussian truncation for mismatch parameters: 4.00 sigma


Opening the PSF file ../psf/mc1_tran.montecarlo ...

Opening the PSF file ../psf/mc1_finalTimeOP.montecarlo ...

Opening the PSF file ../psf/mc1_modelParameter.montecarlo ...

Opening the PSF file ../psf/mc1_element.montecarlo ...

Opening the PSF file ../psf/mc1_outputParameter.montecarlo ...

Opening the PSF file ../psf/mc1_designParamVals.montecarlo ...

Opening the PSF file ../psf/mc1_primitives.montecarlo ...

Opening the PSF file ../psf/mc1_subckts.montecarlo ...

**** Performing monte carlo loop for `mc1'

1   0.00% 

*****************************************************************************************
* 
* INFO: AMS_processOption = C35B4C3
* 
* INFO: Valid Modules  PIP VG5 HIRES
* 
*****************************************************************************************


Notice from spectre at iteration = 1 during Monte Carlo analysis `mc1'.
    V8: `period' has the unusually large value of 100 s.


***********************************************
Transient Analysis `tran': time = (0 s -> 50 s)
***********************************************

Opening the PSF file ../psf/mc1_separate/001/tran.tran.tran ...

Warning from spectre at iteration = 1 during check, during IC analysis, during transient analysis `tran', during Monte Carlo analysis `mc1'.
    WARNING (CMI-2943): Parameter checks have been ignored because the valid value for parameter 'trise' could not be found in 'C1'.
    WARNING (CMI-2943): Parameter checks have been ignored because the valid value for parameter 'trise' could not be found in 'I0.R2.CM'.
    WARNING (CMI-2943): Parameter checks have been ignored because the valid value for parameter 'trise' could not be found in 'I0.R2.CS1'.
    WARNING (CMI-2943): Parameter checks have been ignored because the valid value for parameter 'trise' could not be found in 'I0.R2.CS0'.
    WARNING (CMI-2943): Parameter checks have been ignored because the valid value for parameter 'trise' could not be found in 'I0.C8<3>.C1'.
        Further occurrences of this warning will be suppressed.

Convergence achieved in 12 iterations.
DC simulation time: CPU = 2.377 ms, elapsed = 2.37679 ms.
Important parameter values:
    start = 0 s
    outputstart = 0 s
    stop = 50 s
    step = 50 ms
    maxstep = 500 ms
    ic = all
    useprevic = no
    skipdc = no
    reltol = 10e-06
    abstol(V) = 1 uV
    abstol(I) = 1 pA
    temp = 27 C
    tnom = 27 C
    tempeffects = all
    errpreset = conservative
    method = gear2only
    lteratio = 10
    relref = alllocal
    cmin = 0 F
    gmin = 1 pS
    rabsshort = 1 mOhm


Notice from spectre at iteration = 1 during transient analysis `tran', during Monte Carlo analysis `mc1'.
    Multithreading is disabled due to the size of the design being too small.


Output and IC/nodeset summary:
                 save   8       (current)
                 save   87      (voltage)

    tran: time = 1.336 s     (2.67 %), step = 121 ms       (242 m%)
    tran: time = 3.894 s     (7.79 %), step = 360.9 ms     (722 m%)
    tran: time = 6.689 s     (13.4 %), step = 500 ms          (1 %)
    tran: time = 9.189 s     (18.4 %), step = 500 ms          (1 %)
    tran: time = 11.69 s     (23.4 %), step = 500 ms          (1 %)
    tran: time = 14.19 s     (28.4 %), step = 500 ms          (1 %)
    tran: time = 16.69 s     (33.4 %), step = 500 ms          (1 %)
    tran: time = 19.19 s     (38.4 %), step = 500 ms          (1 %)
    tran: time = 21.69 s     (43.4 %), step = 500 ms          (1 %)
    tran: time = 24.19 s     (48.4 %), step = 500 ms          (1 %)
    tran: time = 26.69 s     (53.4 %), step = 500 ms          (1 %)
    tran: time = 29.19 s     (58.4 %), step = 500 ms          (1 %)
    tran: time = 31.69 s     (63.4 %), step = 500 ms          (1 %)
    tran: time = 34.19 s     (68.4 %), step = 500 ms          (1 %)
    tran: time = 36.69 s     (73.4 %), step = 500 ms          (1 %)
    tran: time = 39.19 s     (78.4 %), step = 500 ms          (1 %)
    tran: time = 41.69 s     (83.4 %), step = 500 ms          (1 %)
    tran: time = 44.19 s     (88.4 %), step = 500 ms          (1 %)
    tran: time = 46.69 s     (93.4 %), step = 500 ms          (1 %)
    tran: time = 49.19 s     (98.4 %), step = 500 ms          (1 %)
Number of accepted tran steps =             749

Maximum value achieved for any signal of each quantity: 
V: V(vout) = 3.3 V
I: I(V8:p) = 6.237 uA

~~~~~~~~~~~~~~~~~~~~~~~~~~~~~~~~~
Post-Transient Simulation Summary
~~~~~~~~~~~~~~~~~~~~~~~~~~~~~~~~~
   -   To further speed up simulation, consider
          add ++aps on command line
   -   Non-default settings that could significantly slow down simulation
          errpreset = conservative, default moderate
          reltol = 10e-06, default 100e-06 (conservative)
~~~~~~~~~~~~~~~~~~~~~~~~~~~~~~~~~


During simulation, the CPU load for active processors is :
         0 (9.6 %)       1 (43.8 %)      2 (19.7 %)      3 (34.7 %)
         4 (40.8 %)      5 (60.4 %)      6 (6.8 %)       7 (100.0 %)
         8 (4.6 %)       9 (48.2 %)     10 (76.0 %)     11 (6.7 %)
        12 (28.8 %)     13 (54.1 %)     14 (28.5 %)     15 (22.2 %)
        16 (35.7 %)     17 (89.9 %)     18 (24.9 %)     19 (33.3 %)
        20 (21.3 %)     21 (28.1 %)     22 (47.7 %)     23 (32.0 %)
        24 (11.7 %)     25 (88.8 %)     26 (14.0 %)     27 (43.7 %)
        28 (71.0 %)     29 (72.9 %)     30 (35.7 %)     31 (6.4 %)
        32 (93.8 %)     33 (76.7 %)     34 (5.0 %)      35 (11.0 %)
        36 (100.0 %)    37 (27.1 %)     38 (19.3 %)     39 (23.2 %)
        40 (100.0 %)    41 (20.3 %)     42 (13.7 %)     43 (52.7 %)
        44 (66.8 %)     45 (7.8 %)      46 (28.8 %)     47 (10.4 %)
        Total: 1898.2%
Initial condition solution time: CPU = 2.416 ms, elapsed = 2.41709 ms.
Intrinsic tran analysis time:    CPU = 400.835 ms, elapsed = 402.257 ms.
Total time required for tran analysis `tran': CPU = 405.629 ms, elapsed = 407.764 ms, util. = 99.5%.
Time accumulated: CPU = 1.55919 s, elapsed = 2.28679 s.
Peak resident memory used = 215 Mbytes.


Notice from spectre during transient analysis `tran', during Monte Carlo analysis `mc1'.
    34 warnings suppressed.

finalTimeOP: writing operating point information to rawfile.

Opening the PSF file ../psf/mc1_separate/001/finalTimeOP.info ...
modelParameter: writing model parameter values to rawfile.

Opening the PSF file ../psf/mc1_separate/001/modelParameter.info ...
element: writing instance parameter values to rawfile.

Opening the PSF file ../psf/mc1_separate/001/element.info ...
outputParameter: writing output parameter values to rawfile.

Opening the PSF file ../psf/mc1_separate/001/outputParameter.info ...
designParamVals: writing netlist parameters to rawfile.

Opening the PSFASCII file ../psf/mc1_separate/001/designParamVals.info ...
primitives: writing primitives to rawfile.

Opening the PSFASCII file ../psf/mc1_separate/001/primitives.info.primitives ...
subckts: writing subcircuits to rawfile.

Opening the PSFASCII file ../psf/mc1_separate/001/subckts.info.subckts ...
2   4.17% 

*****************************************************************************************
* 
* INFO: AMS_processOption = C35B4C3
* 
* INFO: Valid Modules  PIP VG5 HIRES
* 
*****************************************************************************************


Notice from spectre during Monte Carlo analysis `mc1'.
    V8: `period' has the unusually large value of 100 s.


***********************************************
Transient Analysis `tran': time = (0 s -> 50 s)
***********************************************

Opening the PSF file ../psf/mc1_separate/002/tran.tran.tran ...

Warning from spectre during check, during IC analysis, during transient analysis `tran', during Monte Carlo analysis `mc1'.
    WARNING (CMI-2943): Parameter checks have been ignored because the valid value for parameter 'trise' could not be found in 'C1'.
    WARNING (CMI-2943): Parameter checks have been ignored because the valid value for parameter 'trise' could not be found in 'I0.R2.CM'.
    WARNING (CMI-2943): Parameter checks have been ignored because the valid value for parameter 'trise' could not be found in 'I0.R2.CS1'.
    WARNING (CMI-2943): Parameter checks have been ignored because the valid value for parameter 'trise' could not be found in 'I0.R2.CS0'.
    WARNING (CMI-2943): Parameter checks have been ignored because the valid value for parameter 'trise' could not be found in 'I0.C8<3>.C1'.
        Further occurrences of this warning will be suppressed.

Convergence achieved in 12 iterations.
DC simulation time: CPU = 2.268 ms, elapsed = 2.26808 ms.
Important parameter values:
    start = 0 s
    outputstart = 0 s
    stop = 50 s
    step = 50 ms
    maxstep = 500 ms
    ic = all
    useprevic = no
    skipdc = no
    reltol = 10e-06
    abstol(V) = 1 uV
    abstol(I) = 1 pA
    temp = 27 C
    tnom = 27 C
    tempeffects = all
    errpreset = conservative
    method = gear2only
    lteratio = 10
    relref = alllocal
    cmin = 0 F
    gmin = 1 pS
    rabsshort = 1 mOhm


Notice from spectre during transient analysis `tran', during Monte Carlo analysis `mc1'.
    Multithreading is disabled due to the size of the design being too small.


Output and IC/nodeset summary:
                 save   8       (current)
                 save   87      (voltage)

    tran: time = 1.311 s     (2.62 %), step = 90.26 ms     (181 m%)
    tran: time = 3.892 s     (7.78 %), step = 336.4 ms     (673 m%)
    tran: time = 6.564 s     (13.1 %), step = 500 ms          (1 %)
    tran: time = 9.064 s     (18.1 %), step = 500 ms          (1 %)
    tran: time = 11.56 s     (23.1 %), step = 500 ms          (1 %)
    tran: time = 14.06 s     (28.1 %), step = 500 ms          (1 %)
    tran: time = 16.56 s     (33.1 %), step = 500 ms          (1 %)
    tran: time = 19.06 s     (38.1 %), step = 500 ms          (1 %)
    tran: time = 21.56 s     (43.1 %), step = 500 ms          (1 %)
    tran: time = 24.06 s     (48.1 %), step = 500 ms          (1 %)
    tran: time = 26.56 s     (53.1 %), step = 500 ms          (1 %)
    tran: time = 29.06 s     (58.1 %), step = 500 ms          (1 %)
    tran: time = 31.56 s     (63.1 %), step = 500 ms          (1 %)
    tran: time = 34.06 s     (68.1 %), step = 500 ms          (1 %)
    tran: time = 36.56 s     (73.1 %), step = 500 ms          (1 %)
    tran: time = 39.06 s     (78.1 %), step = 500 ms          (1 %)
    tran: time = 41.56 s     (83.1 %), step = 500 ms          (1 %)
    tran: time = 44.06 s     (88.1 %), step = 500 ms          (1 %)
    tran: time = 46.56 s     (93.1 %), step = 500 ms          (1 %)
    tran: time = 49.06 s     (98.1 %), step = 500 ms          (1 %)
Number of accepted tran steps =             740

Maximum value achieved for any signal of each quantity: 
V: V(vout) = 3.3 V
I: I(V8:p) = 6.493 uA

~~~~~~~~~~~~~~~~~~~~~~~~~~~~~~~~~
Post-Transient Simulation Summary
~~~~~~~~~~~~~~~~~~~~~~~~~~~~~~~~~
   -   To further speed up simulation, consider
          add ++aps on command line
   -   Non-default settings that could significantly slow down simulation
          errpreset = conservative, default moderate
          reltol = 10e-06, default 100e-06 (conservative)
~~~~~~~~~~~~~~~~~~~~~~~~~~~~~~~~~


During simulation, the CPU load for active processors is :
         0 (9.5 %)       1 (53.2 %)      2 (30.6 %)      3 (31.5 %)
         4 (34.8 %)      5 (65.4 %)      6 (7.1 %)       7 (100.0 %)
         8 (5.3 %)       9 (43.4 %)     10 (64.2 %)     11 (6.4 %)
        12 (27.7 %)     13 (45.8 %)     14 (38.2 %)     15 (22.6 %)
        16 (32.8 %)     17 (77.8 %)     18 (35.3 %)     19 (29.3 %)
        20 (33.8 %)     21 (24.4 %)     22 (41.9 %)     23 (41.7 %)
        24 (12.0 %)     25 (84.3 %)     26 (14.0 %)     27 (37.4 %)
        28 (75.7 %)     29 (77.3 %)     30 (31.0 %)     31 (12.2 %)
        32 (94.4 %)     33 (80.6 %)     34 (5.0 %)      35 (9.5 %)
        36 (100.0 %)    37 (25.3 %)     38 (17.9 %)     39 (21.8 %)
        40 (100.0 %)    41 (21.0 %)     42 (12.2 %)     43 (47.2 %)
        44 (57.1 %)     45 (8.4 %)      46 (25.0 %)     47 (24.1 %)
        Total: 1896.0%
Initial condition solution time: CPU = 2.321 ms, elapsed = 2.3241 ms.
Intrinsic tran analysis time:    CPU = 391.533 ms, elapsed = 392.709 ms.
Total time required for tran analysis `tran': CPU = 396.174 ms, elapsed = 397.951 ms, util. = 99.6%.
Time accumulated: CPU = 1.99473 s, elapsed = 2.73489 s.
Peak resident memory used = 216 Mbytes.


Notice from spectre during transient analysis `tran', during Monte Carlo analysis `mc1'.
    34 warnings suppressed.

finalTimeOP: writing operating point information to rawfile.

Opening the PSF file ../psf/mc1_separate/002/finalTimeOP.info ...
modelParameter: writing model parameter values to rawfile.

Opening the PSF file ../psf/mc1_separate/002/modelParameter.info ...
element: writing instance parameter values to rawfile.

Opening the PSF file ../psf/mc1_separate/002/element.info ...
outputParameter: writing output parameter values to rawfile.

Opening the PSF file ../psf/mc1_separate/002/outputParameter.info ...
designParamVals: writing netlist parameters to rawfile.

Opening the PSFASCII file ../psf/mc1_separate/002/designParamVals.info ...
primitives: writing primitives to rawfile.

Opening the PSFASCII file ../psf/mc1_separate/002/primitives.info.primitives ...
subckts: writing subcircuits to rawfile.

Opening the PSFASCII file ../psf/mc1_separate/002/subckts.info.subckts ...
    mc1: iteration = 2           (4.17 %), step = 1            (4.17 %)
3   8.33% 

*****************************************************************************************
* 
* INFO: AMS_processOption = C35B4C3
* 
* INFO: Valid Modules  PIP VG5 HIRES
* 
*****************************************************************************************


Notice from spectre during Monte Carlo analysis `mc1'.
    V8: `period' has the unusually large value of 100 s.


***********************************************
Transient Analysis `tran': time = (0 s -> 50 s)
***********************************************

Opening the PSF file ../psf/mc1_separate/003/tran.tran.tran ...

Warning from spectre during check, during IC analysis, during transient analysis `tran', during Monte Carlo analysis `mc1'.
    WARNING (CMI-2943): Parameter checks have been ignored because the valid value for parameter 'trise' could not be found in 'C1'.
    WARNING (CMI-2943): Parameter checks have been ignored because the valid value for parameter 'trise' could not be found in 'I0.R2.CM'.
    WARNING (CMI-2943): Parameter checks have been ignored because the valid value for parameter 'trise' could not be found in 'I0.R2.CS1'.
    WARNING (CMI-2943): Parameter checks have been ignored because the valid value for parameter 'trise' could not be found in 'I0.R2.CS0'.
    WARNING (CMI-2943): Parameter checks have been ignored because the valid value for parameter 'trise' could not be found in 'I0.C8<3>.C1'.
        Further occurrences of this warning will be suppressed.

Convergence achieved in 12 iterations.
DC simulation time: CPU = 2.244 ms, elapsed = 2.244 ms.
Important parameter values:
    start = 0 s
    outputstart = 0 s
    stop = 50 s
    step = 50 ms
    maxstep = 500 ms
    ic = all
    useprevic = no
    skipdc = no
    reltol = 10e-06
    abstol(V) = 1 uV
    abstol(I) = 1 pA
    temp = 27 C
    tnom = 27 C
    tempeffects = all
    errpreset = conservative
    method = gear2only
    lteratio = 10
    relref = alllocal
    cmin = 0 F
    gmin = 1 pS
    rabsshort = 1 mOhm


Notice from spectre during transient analysis `tran', during Monte Carlo analysis `mc1'.
    Multithreading is disabled due to the size of the design being too small.


Output and IC/nodeset summary:
                 save   8       (current)
                 save   87      (voltage)

    tran: time = 1.382 s     (2.76 %), step = 134.1 ms     (268 m%)
    tran: time = 3.788 s     (7.58 %), step = 356 ms       (712 m%)
    tran: time = 6.564 s     (13.1 %), step = 500 ms          (1 %)
    tran: time = 9.064 s     (18.1 %), step = 500 ms          (1 %)
    tran: time = 11.56 s     (23.1 %), step = 500 ms          (1 %)
    tran: time = 14.06 s     (28.1 %), step = 500 ms          (1 %)
    tran: time = 16.56 s     (33.1 %), step = 500 ms          (1 %)
    tran: time = 19.06 s     (38.1 %), step = 500 ms          (1 %)
    tran: time = 21.56 s     (43.1 %), step = 500 ms          (1 %)
    tran: time = 24.06 s     (48.1 %), step = 500 ms          (1 %)
    tran: time = 26.56 s     (53.1 %), step = 500 ms          (1 %)
    tran: time = 29.06 s     (58.1 %), step = 500 ms          (1 %)
    tran: time = 31.56 s     (63.1 %), step = 500 ms          (1 %)
    tran: time = 34.06 s     (68.1 %), step = 500 ms          (1 %)
    tran: time = 36.56 s     (73.1 %), step = 500 ms          (1 %)
    tran: time = 39.06 s     (78.1 %), step = 500 ms          (1 %)
    tran: time = 41.56 s     (83.1 %), step = 500 ms          (1 %)
    tran: time = 44.06 s     (88.1 %), step = 500 ms          (1 %)
    tran: time = 46.56 s     (93.1 %), step = 500 ms          (1 %)
    tran: time = 49.06 s     (98.1 %), step = 500 ms          (1 %)
Number of accepted tran steps =             737

Maximum value achieved for any signal of each quantity: 
V: V(vout) = 3.3 V
I: I(V8:p) = 6.374 uA

~~~~~~~~~~~~~~~~~~~~~~~~~~~~~~~~~
Post-Transient Simulation Summary
~~~~~~~~~~~~~~~~~~~~~~~~~~~~~~~~~
   -   To further speed up simulation, consider
          add ++aps on command line
   -   Non-default settings that could significantly slow down simulation
          errpreset = conservative, default moderate
          reltol = 10e-06, default 100e-06 (conservative)
~~~~~~~~~~~~~~~~~~~~~~~~~~~~~~~~~


During simulation, the CPU load for active processors is :
         0 (9.8 %)       1 (59.1 %)      2 (40.1 %)      3 (27.5 %)
         4 (43.0 %)      5 (70.4 %)      6 (7.4 %)       7 (100.0 %)
         8 (5.9 %)       9 (37.5 %)     10 (55.4 %)     11 (6.1 %)
        12 (27.8 %)     13 (52.1 %)     14 (46.3 %)     15 (33.9 %)
        16 (29.2 %)     17 (68.6 %)     18 (44.6 %)     19 (28.0 %)
        20 (42.9 %)     21 (22.2 %)     22 (37.7 %)     23 (36.5 %)
        24 (11.3 %)     25 (73.6 %)     26 (13.6 %)     27 (32.5 %)
        28 (68.3 %)     29 (80.3 %)     30 (31.8 %)     31 (12.1 %)
        32 (89.5 %)     33 (83.4 %)     34 (6.2 %)      35 (19.5 %)
        36 (100.0 %)    37 (34.6 %)     38 (15.8 %)     39 (33.0 %)
        40 (100.0 %)    41 (21.2 %)     42 (11.1 %)     43 (41.9 %)
        44 (49.5 %)     45 (7.9 %)      46 (35.4 %)     47 (23.5 %)
        Total: 1928.1%
Initial condition solution time: CPU = 2.33 ms, elapsed = 2.33197 ms.
Intrinsic tran analysis time:    CPU = 392.234 ms, elapsed = 393.652 ms.
Total time required for tran analysis `tran': CPU = 396.852 ms, elapsed = 398.798 ms, util. = 99.5%.
Time accumulated: CPU = 2.4325 s, elapsed = 3.18518 s.
Peak resident memory used = 216 Mbytes.


Notice from spectre during transient analysis `tran', during Monte Carlo analysis `mc1'.
    34 warnings suppressed.

finalTimeOP: writing operating point information to rawfile.

Opening the PSF file ../psf/mc1_separate/003/finalTimeOP.info ...
modelParameter: writing model parameter values to rawfile.

Opening the PSF file ../psf/mc1_separate/003/modelParameter.info ...
element: writing instance parameter values to rawfile.

Opening the PSF file ../psf/mc1_separate/003/element.info ...
outputParameter: writing output parameter values to rawfile.

Opening the PSF file ../psf/mc1_separate/003/outputParameter.info ...
designParamVals: writing netlist parameters to rawfile.

Opening the PSFASCII file ../psf/mc1_separate/003/designParamVals.info ...
primitives: writing primitives to rawfile.

Opening the PSFASCII file ../psf/mc1_separate/003/primitives.info.primitives ...
subckts: writing subcircuits to rawfile.

Opening the PSFASCII file ../psf/mc1_separate/003/subckts.info.subckts ...
    mc1: iteration = 3           (8.33 %), step = 1            (4.17 %)
4  12.50% 

*****************************************************************************************
* 
* INFO: AMS_processOption = C35B4C3
* 
* INFO: Valid Modules  PIP VG5 HIRES
* 
*****************************************************************************************


Notice from spectre during Monte Carlo analysis `mc1'.
    V8: `period' has the unusually large value of 100 s.


***********************************************
Transient Analysis `tran': time = (0 s -> 50 s)
***********************************************

Opening the PSF file ../psf/mc1_separate/004/tran.tran.tran ...

Warning from spectre during check, during IC analysis, during transient analysis `tran', during Monte Carlo analysis `mc1'.
    WARNING (CMI-2943): Parameter checks have been ignored because the valid value for parameter 'trise' could not be found in 'C1'.
    WARNING (CMI-2943): Parameter checks have been ignored because the valid value for parameter 'trise' could not be found in 'I0.R2.CM'.
    WARNING (CMI-2943): Parameter checks have been ignored because the valid value for parameter 'trise' could not be found in 'I0.R2.CS1'.
    WARNING (CMI-2943): Parameter checks have been ignored because the valid value for parameter 'trise' could not be found in 'I0.R2.CS0'.
    WARNING (CMI-2943): Parameter checks have been ignored because the valid value for parameter 'trise' could not be found in 'I0.C8<3>.C1'.
        Further occurrences of this warning will be suppressed.

Convergence achieved in 12 iterations.
DC simulation time: CPU = 2.337 ms, elapsed = 2.33793 ms.
Important parameter values:
    start = 0 s
    outputstart = 0 s
    stop = 50 s
    step = 50 ms
    maxstep = 500 ms
    ic = all
    useprevic = no
    skipdc = no
    reltol = 10e-06
    abstol(V) = 1 uV
    abstol(I) = 1 pA
    temp = 27 C
    tnom = 27 C
    tempeffects = all
    errpreset = conservative
    method = gear2only
    lteratio = 10
    relref = alllocal
    cmin = 0 F
    gmin = 1 pS
    rabsshort = 1 mOhm


Notice from spectre during transient analysis `tran', during Monte Carlo analysis `mc1'.
    Multithreading is disabled due to the size of the design being too small.


Output and IC/nodeset summary:
                 save   8       (current)
                 save   87      (voltage)

    tran: time = 1.354 s     (2.71 %), step = 129.6 ms     (259 m%)
    tran: time = 4.087 s     (8.17 %), step = 384.1 ms     (768 m%)
    tran: time = 6.461 s     (12.9 %), step = 500 ms          (1 %)
    tran: time = 8.961 s     (17.9 %), step = 500 ms          (1 %)
    tran: time = 11.46 s     (22.9 %), step = 500 ms          (1 %)
    tran: time = 13.96 s     (27.9 %), step = 500 ms          (1 %)
    tran: time = 16.46 s     (32.9 %), step = 500 ms          (1 %)
    tran: time = 18.96 s     (37.9 %), step = 500 ms          (1 %)
    tran: time = 21.46 s     (42.9 %), step = 500 ms          (1 %)
    tran: time = 23.96 s     (47.9 %), step = 500 ms          (1 %)
    tran: time = 26.46 s     (52.9 %), step = 500 ms          (1 %)
    tran: time = 28.96 s     (57.9 %), step = 500 ms          (1 %)
    tran: time = 31.46 s     (62.9 %), step = 500 ms          (1 %)
    tran: time = 33.96 s     (67.9 %), step = 500 ms          (1 %)
    tran: time = 36.46 s     (72.9 %), step = 500 ms          (1 %)
    tran: time = 38.96 s     (77.9 %), step = 500 ms          (1 %)
    tran: time = 41.46 s     (82.9 %), step = 500 ms          (1 %)
    tran: time = 43.96 s     (87.9 %), step = 500 ms          (1 %)
    tran: time = 46.46 s     (92.9 %), step = 500 ms          (1 %)
    tran: time = 48.96 s     (97.9 %), step = 500 ms          (1 %)
Number of accepted tran steps =             742

Maximum value achieved for any signal of each quantity: 
V: V(S<0>) = 3.3 V
I: I(V8:p) = 6.534 uA

~~~~~~~~~~~~~~~~~~~~~~~~~~~~~~~~~
Post-Transient Simulation Summary
~~~~~~~~~~~~~~~~~~~~~~~~~~~~~~~~~
   -   To further speed up simulation, consider
          add ++aps on command line
   -   Non-default settings that could significantly slow down simulation
          errpreset = conservative, default moderate
          reltol = 10e-06, default 100e-06 (conservative)
~~~~~~~~~~~~~~~~~~~~~~~~~~~~~~~~~


During simulation, the CPU load for active processors is :
         0 (10.5 %)      1 (64.3 %)      2 (47.2 %)      3 (24.9 %)
         4 (50.1 %)      5 (73.0 %)      6 (7.3 %)       7 (100.0 %)
         8 (5.7 %)       9 (34.5 %)     10 (50.1 %)     11 (8.1 %)
        12 (26.4 %)     13 (57.8 %)     14 (52.8 %)     15 (32.8 %)
        16 (27.4 %)     17 (62.4 %)     18 (50.1 %)     19 (33.2 %)
        20 (45.3 %)     21 (23.1 %)     22 (37.9 %)     23 (33.2 %)
        24 (11.0 %)     25 (75.2 %)     26 (12.5 %)     27 (29.0 %)
        28 (60.3 %)     29 (82.5 %)     30 (40.4 %)     31 (13.1 %)
        32 (79.6 %)     33 (85.5 %)     34 (6.3 %)      35 (29.1 %)
        36 (100.0 %)    37 (35.4 %)     38 (14.7 %)     39 (41.5 %)
        40 (100.0 %)    41 (22.5 %)     42 (18.3 %)     43 (39.7 %)
        44 (45.2 %)     45 (7.2 %)      46 (43.2 %)     47 (22.6 %)
        Total: 1973.2%
Initial condition solution time: CPU = 2.389 ms, elapsed = 2.38991 ms.
Intrinsic tran analysis time:    CPU = 397.343 ms, elapsed = 398.835 ms.
Total time required for tran analysis `tran': CPU = 402.019 ms, elapsed = 404.087 ms, util. = 99.5%.
Time accumulated: CPU = 2.87405 s, elapsed = 3.63836 s.
Peak resident memory used = 216 Mbytes.


Notice from spectre during transient analysis `tran', during Monte Carlo analysis `mc1'.
    34 warnings suppressed.

finalTimeOP: writing operating point information to rawfile.

Opening the PSF file ../psf/mc1_separate/004/finalTimeOP.info ...
modelParameter: writing model parameter values to rawfile.

Opening the PSF file ../psf/mc1_separate/004/modelParameter.info ...
element: writing instance parameter values to rawfile.

Opening the PSF file ../psf/mc1_separate/004/element.info ...
outputParameter: writing output parameter values to rawfile.

Opening the PSF file ../psf/mc1_separate/004/outputParameter.info ...
designParamVals: writing netlist parameters to rawfile.

Opening the PSFASCII file ../psf/mc1_separate/004/designParamVals.info ...
primitives: writing primitives to rawfile.

Opening the PSFASCII file ../psf/mc1_separate/004/primitives.info.primitives ...
subckts: writing subcircuits to rawfile.

Opening the PSFASCII file ../psf/mc1_separate/004/subckts.info.subckts ...
    mc1: iteration = 4           (12.5 %), step = 1            (4.17 %)
5  16.67% 

*****************************************************************************************
* 
* INFO: AMS_processOption = C35B4C3
* 
* INFO: Valid Modules  PIP VG5 HIRES
* 
*****************************************************************************************


Notice from spectre during Monte Carlo analysis `mc1'.
    V8: `period' has the unusually large value of 100 s.


***********************************************
Transient Analysis `tran': time = (0 s -> 50 s)
***********************************************

Opening the PSF file ../psf/mc1_separate/005/tran.tran.tran ...

Warning from spectre during check, during IC analysis, during transient analysis `tran', during Monte Carlo analysis `mc1'.
    WARNING (CMI-2943): Parameter checks have been ignored because the valid value for parameter 'trise' could not be found in 'C1'.
    WARNING (CMI-2943): Parameter checks have been ignored because the valid value for parameter 'trise' could not be found in 'I0.R2.CM'.
    WARNING (CMI-2943): Parameter checks have been ignored because the valid value for parameter 'trise' could not be found in 'I0.R2.CS1'.
    WARNING (CMI-2943): Parameter checks have been ignored because the valid value for parameter 'trise' could not be found in 'I0.R2.CS0'.
    WARNING (CMI-2943): Parameter checks have been ignored because the valid value for parameter 'trise' could not be found in 'I0.C8<3>.C1'.
        Further occurrences of this warning will be suppressed.

Convergence achieved in 12 iterations.
DC simulation time: CPU = 2.221 ms, elapsed = 2.22206 ms.
Important parameter values:
    start = 0 s
    outputstart = 0 s
    stop = 50 s
    step = 50 ms
    maxstep = 500 ms
    ic = all
    useprevic = no
    skipdc = no
    reltol = 10e-06
    abstol(V) = 1 uV
    abstol(I) = 1 pA
    temp = 27 C
    tnom = 27 C
    tempeffects = all
    errpreset = conservative
    method = gear2only
    lteratio = 10
    relref = alllocal
    cmin = 0 F
    gmin = 1 pS
    rabsshort = 1 mOhm


Notice from spectre during transient analysis `tran', during Monte Carlo analysis `mc1'.
    Multithreading is disabled due to the size of the design being too small.


Output and IC/nodeset summary:
                 save   8       (current)
                 save   87      (voltage)

    tran: time = 1.305 s     (2.61 %), step = 69.13 ms     (138 m%)
    tran: time = 3.899 s      (7.8 %), step = 320.4 ms     (641 m%)
    tran: time = 6.524 s       (13 %), step = 500 ms          (1 %)
    tran: time = 9.024 s       (18 %), step = 500 ms          (1 %)
    tran: time = 11.52 s       (23 %), step = 500 ms          (1 %)
    tran: time = 14.02 s       (28 %), step = 500 ms          (1 %)
    tran: time = 16.52 s       (33 %), step = 500 ms          (1 %)
    tran: time = 19.02 s       (38 %), step = 500 ms          (1 %)
    tran: time = 21.52 s       (43 %), step = 500 ms          (1 %)
    tran: time = 24.02 s       (48 %), step = 500 ms          (1 %)
    tran: time = 26.52 s       (53 %), step = 500 ms          (1 %)
    tran: time = 29.02 s       (58 %), step = 500 ms          (1 %)
    tran: time = 31.52 s       (63 %), step = 500 ms          (1 %)
    tran: time = 34.02 s       (68 %), step = 500 ms          (1 %)
    tran: time = 36.52 s       (73 %), step = 500 ms          (1 %)
    tran: time = 39.02 s       (78 %), step = 500 ms          (1 %)
    tran: time = 41.52 s       (83 %), step = 500 ms          (1 %)
    tran: time = 44.02 s       (88 %), step = 500 ms          (1 %)
    tran: time = 46.52 s       (93 %), step = 500 ms          (1 %)
    tran: time = 49.02 s       (98 %), step = 500 ms          (1 %)
Number of accepted tran steps =             741

Maximum value achieved for any signal of each quantity: 
V: V(vout) = 3.3 V
I: I(V8:p) = 6.433 uA

~~~~~~~~~~~~~~~~~~~~~~~~~~~~~~~~~
Post-Transient Simulation Summary
~~~~~~~~~~~~~~~~~~~~~~~~~~~~~~~~~
   -   To further speed up simulation, consider
          add ++aps on command line
   -   Non-default settings that could significantly slow down simulation
          errpreset = conservative, default moderate
          reltol = 10e-06, default 100e-06 (conservative)
~~~~~~~~~~~~~~~~~~~~~~~~~~~~~~~~~


During simulation, the CPU load for active processors is :
         0 (11.3 %)      1 (68.3 %)      2 (44.8 %)      3 (22.9 %)
         4 (54.9 %)      5 (75.4 %)      6 (8.0 %)       7 (100.0 %)
         8 (7.1 %)       9 (40.1 %)     10 (47.0 %)     11 (7.5 %)
        12 (25.7 %)     13 (52.4 %)     14 (57.9 %)     15 (29.6 %)
        16 (25.4 %)     17 (56.7 %)     18 (45.8 %)     19 (40.0 %)
        20 (51.5 %)     21 (21.9 %)     22 (45.0 %)     23 (36.4 %)
        24 (21.1 %)     25 (77.8 %)     26 (16.4 %)     27 (29.8 %)
        28 (54.4 %)     29 (74.1 %)     30 (36.7 %)     31 (22.9 %)
        32 (72.5 %)     33 (87.2 %)     34 (7.1 %)      35 (36.4 %)
        36 (100.0 %)    37 (33.6 %)     38 (14.8 %)     39 (41.2 %)
        40 (100.0 %)    41 (21.8 %)     42 (27.7 %)     43 (37.5 %)
        44 (47.6 %)     45 (8.2 %)      46 (49.2 %)     47 (21.2 %)
        Total: 2014.4%
Initial condition solution time: CPU = 2.255 ms, elapsed = 2.25782 ms.
Intrinsic tran analysis time:    CPU = 402.46 ms, elapsed = 403.792 ms.
Total time required for tran analysis `tran': CPU = 407.143 ms, elapsed = 409.044 ms, util. = 99.5%.
Time accumulated: CPU = 3.32181 s, elapsed = 4.09862 s.
Peak resident memory used = 216 Mbytes.


Notice from spectre during transient analysis `tran', during Monte Carlo analysis `mc1'.
    34 warnings suppressed.

finalTimeOP: writing operating point information to rawfile.

Opening the PSF file ../psf/mc1_separate/005/finalTimeOP.info ...
modelParameter: writing model parameter values to rawfile.

Opening the PSF file ../psf/mc1_separate/005/modelParameter.info ...
element: writing instance parameter values to rawfile.

Opening the PSF file ../psf/mc1_separate/005/element.info ...
outputParameter: writing output parameter values to rawfile.

Opening the PSF file ../psf/mc1_separate/005/outputParameter.info ...
designParamVals: writing netlist parameters to rawfile.

Opening the PSFASCII file ../psf/mc1_separate/005/designParamVals.info ...
primitives: writing primitives to rawfile.

Opening the PSFASCII file ../psf/mc1_separate/005/primitives.info.primitives ...
subckts: writing subcircuits to rawfile.

Opening the PSFASCII file ../psf/mc1_separate/005/subckts.info.subckts ...
    mc1: iteration = 5           (16.7 %), step = 1            (4.17 %)
6  20.83% 

*****************************************************************************************
* 
* INFO: AMS_processOption = C35B4C3
* 
* INFO: Valid Modules  PIP VG5 HIRES
* 
*****************************************************************************************


Notice from spectre during Monte Carlo analysis `mc1'.
    V8: `period' has the unusually large value of 100 s.


***********************************************
Transient Analysis `tran': time = (0 s -> 50 s)
***********************************************

Opening the PSF file ../psf/mc1_separate/006/tran.tran.tran ...

Warning from spectre during check, during IC analysis, during transient analysis `tran', during Monte Carlo analysis `mc1'.
    WARNING (CMI-2943): Parameter checks have been ignored because the valid value for parameter 'trise' could not be found in 'C1'.
    WARNING (CMI-2943): Parameter checks have been ignored because the valid value for parameter 'trise' could not be found in 'I0.R2.CM'.
    WARNING (CMI-2943): Parameter checks have been ignored because the valid value for parameter 'trise' could not be found in 'I0.R2.CS1'.
    WARNING (CMI-2943): Parameter checks have been ignored because the valid value for parameter 'trise' could not be found in 'I0.R2.CS0'.
    WARNING (CMI-2943): Parameter checks have been ignored because the valid value for parameter 'trise' could not be found in 'I0.C8<3>.C1'.
        Further occurrences of this warning will be suppressed.

Convergence achieved in 12 iterations.
DC simulation time: CPU = 2.248 ms, elapsed = 2.249 ms.
Important parameter values:
    start = 0 s
    outputstart = 0 s
    stop = 50 s
    step = 50 ms
    maxstep = 500 ms
    ic = all
    useprevic = no
    skipdc = no
    reltol = 10e-06
    abstol(V) = 1 uV
    abstol(I) = 1 pA
    temp = 27 C
    tnom = 27 C
    tempeffects = all
    errpreset = conservative
    method = gear2only
    lteratio = 10
    relref = alllocal
    cmin = 0 F
    gmin = 1 pS
    rabsshort = 1 mOhm


Notice from spectre during transient analysis `tran', during Monte Carlo analysis `mc1'.
    Multithreading is disabled due to the size of the design being too small.


Output and IC/nodeset summary:
                 save   8       (current)
                 save   87      (voltage)

    tran: time = 1.276 s     (2.55 %), step = 101.1 ms     (202 m%)
    tran: time = 3.756 s     (7.51 %), step = 38.78 ms    (77.6 m%)
    tran: time = 6.412 s     (12.8 %), step = 323.2 ms     (646 m%)
    tran: time = 8.977 s       (18 %), step = 496.7 ms     (993 m%)
    tran: time = 11.48 s       (23 %), step = 500 ms          (1 %)
    tran: time = 13.98 s       (28 %), step = 500 ms          (1 %)
    tran: time = 16.48 s       (33 %), step = 500 ms          (1 %)
    tran: time = 18.98 s       (38 %), step = 500 ms          (1 %)
    tran: time = 21.48 s       (43 %), step = 500 ms          (1 %)
    tran: time = 23.98 s       (48 %), step = 500 ms          (1 %)
    tran: time = 26.48 s       (53 %), step = 500 ms          (1 %)
    tran: time = 28.98 s       (58 %), step = 500 ms          (1 %)
    tran: time = 31.48 s       (63 %), step = 500 ms          (1 %)
    tran: time = 33.98 s       (68 %), step = 500 ms          (1 %)
    tran: time = 36.48 s       (73 %), step = 500 ms          (1 %)
    tran: time = 38.98 s       (78 %), step = 500 ms          (1 %)
    tran: time = 41.48 s       (83 %), step = 500 ms          (1 %)
    tran: time = 43.98 s       (88 %), step = 500 ms          (1 %)
    tran: time = 46.48 s       (93 %), step = 500 ms          (1 %)
    tran: time = 48.98 s       (98 %), step = 500 ms          (1 %)
Number of accepted tran steps =             734

Maximum value achieved for any signal of each quantity: 
V: V(vout_filt) = 3.3 V
I: I(V8:p) = 6.459 uA

~~~~~~~~~~~~~~~~~~~~~~~~~~~~~~~~~
Post-Transient Simulation Summary
~~~~~~~~~~~~~~~~~~~~~~~~~~~~~~~~~
   -   To further speed up simulation, consider
          add ++aps on command line
   -   Non-default settings that could significantly slow down simulation
          errpreset = conservative, default moderate
          reltol = 10e-06, default 100e-06 (conservative)
~~~~~~~~~~~~~~~~~~~~~~~~~~~~~~~~~


During simulation, the CPU load for active processors is :
         0 (11.2 %)      1 (71.7 %)      2 (41.0 %)      3 (20.8 %)
         4 (59.5 %)      5 (77.7 %)      6 (7.6 %)       7 (100.0 %)
         8 (6.3 %)       9 (45.9 %)     10 (42.6 %)     11 (7.0 %)
        12 (24.9 %)     13 (47.5 %)     14 (52.4 %)     15 (36.0 %)
        16 (25.4 %)     17 (51.3 %)     18 (50.9 %)     19 (44.7 %)
        20 (54.7 %)     21 (20.3 %)     22 (50.4 %)     23 (33.6 %)
        24 (29.4 %)     25 (79.4 %)     26 (23.6 %)     27 (30.8 %)
        28 (51.1 %)     29 (67.0 %)     30 (33.4 %)     31 (30.8 %)
        32 (65.4 %)     33 (88.5 %)     34 (6.6 %)      35 (38.3 %)
        36 (100.0 %)    37 (30.8 %)     38 (22.9 %)     39 (37.7 %)
        40 (100.0 %)    41 (22.0 %)     42 (34.7 %)     43 (35.2 %)
        44 (48.5 %)     45 (8.0 %)      46 (50.3 %)     47 (20.4 %)
        Total: 2038.3%
Initial condition solution time: CPU = 2.302 ms, elapsed = 2.30289 ms.
Intrinsic tran analysis time:    CPU = 406.736 ms, elapsed = 407.975 ms.
Total time required for tran analysis `tran': CPU = 411.309 ms, elapsed = 413.075 ms, util. = 99.6%.
Time accumulated: CPU = 3.77721 s, elapsed = 4.56541 s.
Peak resident memory used = 216 Mbytes.


Notice from spectre during transient analysis `tran', during Monte Carlo analysis `mc1'.
    34 warnings suppressed.

finalTimeOP: writing operating point information to rawfile.

Opening the PSF file ../psf/mc1_separate/006/finalTimeOP.info ...
modelParameter: writing model parameter values to rawfile.

Opening the PSF file ../psf/mc1_separate/006/modelParameter.info ...
element: writing instance parameter values to rawfile.

Opening the PSF file ../psf/mc1_separate/006/element.info ...
outputParameter: writing output parameter values to rawfile.

Opening the PSF file ../psf/mc1_separate/006/outputParameter.info ...
designParamVals: writing netlist parameters to rawfile.

Opening the PSFASCII file ../psf/mc1_separate/006/designParamVals.info ...
primitives: writing primitives to rawfile.

Opening the PSFASCII file ../psf/mc1_separate/006/primitives.info.primitives ...
subckts: writing subcircuits to rawfile.

Opening the PSFASCII file ../psf/mc1_separate/006/subckts.info.subckts ...
    mc1: iteration = 6           (20.8 %), step = 1            (4.17 %)
7  25.00% 

*****************************************************************************************
* 
* INFO: AMS_processOption = C35B4C3
* 
* INFO: Valid Modules  PIP VG5 HIRES
* 
*****************************************************************************************


Notice from spectre during Monte Carlo analysis `mc1'.
    V8: `period' has the unusually large value of 100 s.


***********************************************
Transient Analysis `tran': time = (0 s -> 50 s)
***********************************************

Opening the PSF file ../psf/mc1_separate/007/tran.tran.tran ...

Warning from spectre during check, during IC analysis, during transient analysis `tran', during Monte Carlo analysis `mc1'.
    WARNING (CMI-2943): Parameter checks have been ignored because the valid value for parameter 'trise' could not be found in 'C1'.
    WARNING (CMI-2943): Parameter checks have been ignored because the valid value for parameter 'trise' could not be found in 'I0.R2.CM'.
    WARNING (CMI-2943): Parameter checks have been ignored because the valid value for parameter 'trise' could not be found in 'I0.R2.CS1'.
    WARNING (CMI-2943): Parameter checks have been ignored because the valid value for parameter 'trise' could not be found in 'I0.R2.CS0'.
    WARNING (CMI-2943): Parameter checks have been ignored because the valid value for parameter 'trise' could not be found in 'I0.C8<3>.C1'.
        Further occurrences of this warning will be suppressed.

Convergence achieved in 12 iterations.
DC simulation time: CPU = 2.371 ms, elapsed = 2.37203 ms.
Important parameter values:
    start = 0 s
    outputstart = 0 s
    stop = 50 s
    step = 50 ms
    maxstep = 500 ms
    ic = all
    useprevic = no
    skipdc = no
    reltol = 10e-06
    abstol(V) = 1 uV
    abstol(I) = 1 pA
    temp = 27 C
    tnom = 27 C
    tempeffects = all
    errpreset = conservative
    method = gear2only
    lteratio = 10
    relref = alllocal
    cmin = 0 F
    gmin = 1 pS
    rabsshort = 1 mOhm


Notice from spectre during transient analysis `tran', during Monte Carlo analysis `mc1'.
    Multithreading is disabled due to the size of the design being too small.


Output and IC/nodeset summary:
                 save   8       (current)
                 save   87      (voltage)

    tran: time = 1.306 s     (2.61 %), step = 105.9 ms     (212 m%)
    tran: time = 3.937 s     (7.87 %), step = 357.9 ms     (716 m%)
    tran: time = 6.725 s     (13.4 %), step = 500 ms          (1 %)
    tran: time = 9.225 s     (18.4 %), step = 500 ms          (1 %)
    tran: time = 11.72 s     (23.4 %), step = 500 ms          (1 %)
    tran: time = 14.22 s     (28.4 %), step = 500 ms          (1 %)
    tran: time = 16.72 s     (33.4 %), step = 500 ms          (1 %)
    tran: time = 19.22 s     (38.4 %), step = 500 ms          (1 %)
    tran: time = 21.72 s     (43.4 %), step = 500 ms          (1 %)
    tran: time = 24.22 s     (48.4 %), step = 500 ms          (1 %)
    tran: time = 26.72 s     (53.4 %), step = 500 ms          (1 %)
    tran: time = 29.22 s     (58.4 %), step = 500 ms          (1 %)
    tran: time = 31.72 s     (63.4 %), step = 500 ms          (1 %)
    tran: time = 34.22 s     (68.4 %), step = 500 ms          (1 %)
    tran: time = 36.72 s     (73.4 %), step = 500 ms          (1 %)
    tran: time = 39.22 s     (78.4 %), step = 500 ms          (1 %)
    tran: time = 41.72 s     (83.4 %), step = 500 ms          (1 %)
    tran: time = 44.22 s     (88.4 %), step = 500 ms          (1 %)
    tran: time = 46.72 s     (93.4 %), step = 500 ms          (1 %)
    tran: time = 49.22 s     (98.4 %), step = 500 ms          (1 %)
Number of accepted tran steps =             746

Maximum value achieved for any signal of each quantity: 
V: V(vout) = 3.3 V
I: I(V8:p) = 6.609 uA

~~~~~~~~~~~~~~~~~~~~~~~~~~~~~~~~~
Post-Transient Simulation Summary
~~~~~~~~~~~~~~~~~~~~~~~~~~~~~~~~~
   -   To further speed up simulation, consider
          add ++aps on command line
   -   Non-default settings that could significantly slow down simulation
          errpreset = conservative, default moderate
          reltol = 10e-06, default 100e-06 (conservative)
~~~~~~~~~~~~~~~~~~~~~~~~~~~~~~~~~


During simulation, the CPU load for active processors is :
         0 (10.8 %)      1 (74.3 %)      2 (37.4 %)      3 (21.9 %)
         4 (60.4 %)      5 (79.0 %)      6 (7.7 %)       7 (100.0 %)
         8 (14.3 %)      9 (43.0 %)     10 (39.4 %)     11 (7.3 %)
        12 (24.4 %)     13 (45.6 %)     14 (55.4 %)     15 (41.7 %)
        16 (25.5 %)     17 (47.3 %)     18 (55.5 %)     19 (41.0 %)
        20 (52.2 %)     21 (24.5 %)     22 (52.1 %)     23 (33.3 %)
        24 (36.1 %)     25 (81.4 %)     26 (21.8 %)     27 (37.1 %)
        28 (55.7 %)     29 (61.0 %)     30 (30.8 %)     31 (37.1 %)
        32 (59.6 %)     33 (89.6 %)     34 (6.0 %)      35 (34.9 %)
        36 (100.0 %)    37 (29.8 %)     38 (23.2 %)     39 (36.0 %)
        40 (100.0 %)    41 (20.8 %)     42 (40.7 %)     43 (36.1 %)
        44 (49.9 %)     45 (8.7 %)      46 (50.0 %)     47 (25.1 %)
        Total: 2065.6%
Initial condition solution time: CPU = 2.414 ms, elapsed = 2.4159 ms.
Intrinsic tran analysis time:    CPU = 415.63 ms, elapsed = 416.815 ms.
Total time required for tran analysis `tran': CPU = 420.675 ms, elapsed = 422.598 ms, util. = 99.5%.
Time accumulated: CPU = 4.23841 s, elapsed = 5.0403 s.
Peak resident memory used = 216 Mbytes.


Notice from spectre during transient analysis `tran', during Monte Carlo analysis `mc1'.
    34 warnings suppressed.

finalTimeOP: writing operating point information to rawfile.

Opening the PSF file ../psf/mc1_separate/007/finalTimeOP.info ...
modelParameter: writing model parameter values to rawfile.

Opening the PSF file ../psf/mc1_separate/007/modelParameter.info ...
element: writing instance parameter values to rawfile.

Opening the PSF file ../psf/mc1_separate/007/element.info ...
outputParameter: writing output parameter values to rawfile.

Opening the PSF file ../psf/mc1_separate/007/outputParameter.info ...
designParamVals: writing netlist parameters to rawfile.

Opening the PSFASCII file ../psf/mc1_separate/007/designParamVals.info ...
primitives: writing primitives to rawfile.

Opening the PSFASCII file ../psf/mc1_separate/007/primitives.info.primitives ...
subckts: writing subcircuits to rawfile.

Opening the PSFASCII file ../psf/mc1_separate/007/subckts.info.subckts ...
    mc1: iteration = 7             (25 %), step = 1            (4.17 %)
8  29.17% 

*****************************************************************************************
* 
* INFO: AMS_processOption = C35B4C3
* 
* INFO: Valid Modules  PIP VG5 HIRES
* 
*****************************************************************************************


Notice from spectre during Monte Carlo analysis `mc1'.
    V8: `period' has the unusually large value of 100 s.


***********************************************
Transient Analysis `tran': time = (0 s -> 50 s)
***********************************************

Opening the PSF file ../psf/mc1_separate/008/tran.tran.tran ...

Warning from spectre during check, during IC analysis, during transient analysis `tran', during Monte Carlo analysis `mc1'.
    WARNING (CMI-2943): Parameter checks have been ignored because the valid value for parameter 'trise' could not be found in 'C1'.
    WARNING (CMI-2943): Parameter checks have been ignored because the valid value for parameter 'trise' could not be found in 'I0.R2.CM'.
    WARNING (CMI-2943): Parameter checks have been ignored because the valid value for parameter 'trise' could not be found in 'I0.R2.CS1'.
    WARNING (CMI-2943): Parameter checks have been ignored because the valid value for parameter 'trise' could not be found in 'I0.R2.CS0'.
    WARNING (CMI-2943): Parameter checks have been ignored because the valid value for parameter 'trise' could not be found in 'I0.C8<3>.C1'.
        Further occurrences of this warning will be suppressed.

Convergence achieved in 12 iterations.
DC simulation time: CPU = 2.325 ms, elapsed = 2.32506 ms.
Important parameter values:
    start = 0 s
    outputstart = 0 s
    stop = 50 s
    step = 50 ms
    maxstep = 500 ms
    ic = all
    useprevic = no
    skipdc = no
    reltol = 10e-06
    abstol(V) = 1 uV
    abstol(I) = 1 pA
    temp = 27 C
    tnom = 27 C
    tempeffects = all
    errpreset = conservative
    method = gear2only
    lteratio = 10
    relref = alllocal
    cmin = 0 F
    gmin = 1 pS
    rabsshort = 1 mOhm


Notice from spectre during transient analysis `tran', during Monte Carlo analysis `mc1'.
    Multithreading is disabled due to the size of the design being too small.


Output and IC/nodeset summary:
                 save   8       (current)
                 save   87      (voltage)

    tran: time = 1.368 s     (2.74 %), step = 125.9 ms     (252 m%)
    tran: time = 4.019 s     (8.04 %), step = 373.3 ms     (747 m%)
    tran: time = 6.359 s     (12.7 %), step = 500 ms          (1 %)
    tran: time = 8.859 s     (17.7 %), step = 500 ms          (1 %)
    tran: time = 11.36 s     (22.7 %), step = 500 ms          (1 %)
    tran: time = 13.86 s     (27.7 %), step = 500 ms          (1 %)
    tran: time = 16.36 s     (32.7 %), step = 500 ms          (1 %)
    tran: time = 18.86 s     (37.7 %), step = 500 ms          (1 %)
    tran: time = 21.36 s     (42.7 %), step = 500 ms          (1 %)
    tran: time = 23.86 s     (47.7 %), step = 500 ms          (1 %)
    tran: time = 26.36 s     (52.7 %), step = 500 ms          (1 %)
    tran: time = 28.86 s     (57.7 %), step = 500 ms          (1 %)
    tran: time = 31.36 s     (62.7 %), step = 500 ms          (1 %)
    tran: time = 33.86 s     (67.7 %), step = 500 ms          (1 %)
    tran: time = 36.36 s     (72.7 %), step = 500 ms          (1 %)
    tran: time = 38.86 s     (77.7 %), step = 500 ms          (1 %)
    tran: time = 41.36 s     (82.7 %), step = 500 ms          (1 %)
    tran: time = 43.86 s     (87.7 %), step = 500 ms          (1 %)
    tran: time = 46.36 s     (92.7 %), step = 500 ms          (1 %)
    tran: time = 48.86 s     (97.7 %), step = 500 ms          (1 %)
Number of accepted tran steps =             748

Maximum value achieved for any signal of each quantity: 
V: V(vout) = 3.3 V
I: I(V8:p) = 6.493 uA

~~~~~~~~~~~~~~~~~~~~~~~~~~~~~~~~~
Post-Transient Simulation Summary
~~~~~~~~~~~~~~~~~~~~~~~~~~~~~~~~~
   -   To further speed up simulation, consider
          add ++aps on command line
   -   Non-default settings that could significantly slow down simulation
          errpreset = conservative, default moderate
          reltol = 10e-06, default 100e-06 (conservative)
~~~~~~~~~~~~~~~~~~~~~~~~~~~~~~~~~


During simulation, the CPU load for active processors is :
         0 (10.6 %)      1 (76.5 %)      2 (35.0 %)      3 (28.5 %)
         4 (56.0 %)      5 (80.8 %)      6 (7.6 %)       7 (100.0 %)
         8 (14.4 %)      9 (46.9 %)     10 (36.1 %)     11 (7.1 %)
        12 (23.8 %)     13 (42.3 %)     14 (52.2 %)     15 (39.2 %)
        16 (31.8 %)     17 (50.1 %)     18 (58.5 %)     19 (37.9 %)
        20 (55.7 %)     21 (24.3 %)     22 (49.5 %)     23 (37.8 %)
        24 (41.7 %)     25 (82.2 %)     26 (21.1 %)     27 (36.3 %)
        28 (52.3 %)     29 (58.5 %)     30 (34.8 %)     31 (42.3 %)
        32 (61.1 %)     33 (90.4 %)     34 (6.2 %)      35 (32.4 %)
        36 (100.0 %)    37 (29.4 %)     38 (22.5 %)     39 (35.2 %)
        40 (100.0 %)    41 (19.7 %)     42 (37.8 %)     43 (40.9 %)
        44 (54.2 %)     45 (8.7 %)      46 (46.0 %)     47 (31.4 %)
        Total: 2087.9%
Initial condition solution time: CPU = 2.361 ms, elapsed = 2.36201 ms.
Intrinsic tran analysis time:    CPU = 403.126 ms, elapsed = 404.653 ms.
Total time required for tran analysis `tran': CPU = 407.9 ms, elapsed = 409.974 ms, util. = 99.5%.
Time accumulated: CPU = 4.68703 s, elapsed = 5.50178 s.
Peak resident memory used = 216 Mbytes.


Notice from spectre during transient analysis `tran', during Monte Carlo analysis `mc1'.
    34 warnings suppressed.

finalTimeOP: writing operating point information to rawfile.

Opening the PSF file ../psf/mc1_separate/008/finalTimeOP.info ...
modelParameter: writing model parameter values to rawfile.

Opening the PSF file ../psf/mc1_separate/008/modelParameter.info ...
element: writing instance parameter values to rawfile.

Opening the PSF file ../psf/mc1_separate/008/element.info ...
outputParameter: writing output parameter values to rawfile.

Opening the PSF file ../psf/mc1_separate/008/outputParameter.info ...
designParamVals: writing netlist parameters to rawfile.

Opening the PSFASCII file ../psf/mc1_separate/008/designParamVals.info ...
primitives: writing primitives to rawfile.

Opening the PSFASCII file ../psf/mc1_separate/008/primitives.info.primitives ...
subckts: writing subcircuits to rawfile.

Opening the PSFASCII file ../psf/mc1_separate/008/subckts.info.subckts ...
    mc1: iteration = 8           (29.2 %), step = 1            (4.17 %)
9  33.33% 

*****************************************************************************************
* 
* INFO: AMS_processOption = C35B4C3
* 
* INFO: Valid Modules  PIP VG5 HIRES
* 
*****************************************************************************************


Notice from spectre during Monte Carlo analysis `mc1'.
    V8: `period' has the unusually large value of 100 s.


***********************************************
Transient Analysis `tran': time = (0 s -> 50 s)
***********************************************

Opening the PSF file ../psf/mc1_separate/009/tran.tran.tran ...

Warning from spectre during check, during IC analysis, during transient analysis `tran', during Monte Carlo analysis `mc1'.
    WARNING (CMI-2943): Parameter checks have been ignored because the valid value for parameter 'trise' could not be found in 'C1'.
    WARNING (CMI-2943): Parameter checks have been ignored because the valid value for parameter 'trise' could not be found in 'I0.R2.CM'.
    WARNING (CMI-2943): Parameter checks have been ignored because the valid value for parameter 'trise' could not be found in 'I0.R2.CS1'.
    WARNING (CMI-2943): Parameter checks have been ignored because the valid value for parameter 'trise' could not be found in 'I0.R2.CS0'.
    WARNING (CMI-2943): Parameter checks have been ignored because the valid value for parameter 'trise' could not be found in 'I0.C8<3>.C1'.
        Further occurrences of this warning will be suppressed.

Convergence achieved in 12 iterations.
DC simulation time: CPU = 2.491 ms, elapsed = 2.49195 ms.
Important parameter values:
    start = 0 s
    outputstart = 0 s
    stop = 50 s
    step = 50 ms
    maxstep = 500 ms
    ic = all
    useprevic = no
    skipdc = no
    reltol = 10e-06
    abstol(V) = 1 uV
    abstol(I) = 1 pA
    temp = 27 C
    tnom = 27 C
    tempeffects = all
    errpreset = conservative
    method = gear2only
    lteratio = 10
    relref = alllocal
    cmin = 0 F
    gmin = 1 pS
    rabsshort = 1 mOhm


Notice from spectre during transient analysis `tran', during Monte Carlo analysis `mc1'.
    Multithreading is disabled due to the size of the design being too small.


Output and IC/nodeset summary:
                 save   8       (current)
                 save   87      (voltage)

    tran: time = 1.273 s     (2.55 %), step = 25.14 ms    (50.3 m%)
    tran: time = 4.005 s     (8.01 %), step = 292.4 ms     (585 m%)
    tran: time = 6.415 s     (12.8 %), step = 481.6 ms     (963 m%)
    tran: time = 8.915 s     (17.8 %), step = 500 ms          (1 %)
    tran: time = 11.41 s     (22.8 %), step = 500 ms          (1 %)
    tran: time = 13.91 s     (27.8 %), step = 500 ms          (1 %)
    tran: time = 16.41 s     (32.8 %), step = 500 ms          (1 %)
    tran: time = 18.91 s     (37.8 %), step = 500 ms          (1 %)
    tran: time = 21.41 s     (42.8 %), step = 500 ms          (1 %)
    tran: time = 23.91 s     (47.8 %), step = 500 ms          (1 %)
    tran: time = 26.41 s     (52.8 %), step = 500 ms          (1 %)
    tran: time = 28.91 s     (57.8 %), step = 500 ms          (1 %)
    tran: time = 31.41 s     (62.8 %), step = 500 ms          (1 %)
    tran: time = 33.91 s     (67.8 %), step = 500 ms          (1 %)
    tran: time = 36.41 s     (72.8 %), step = 500 ms          (1 %)
    tran: time = 38.91 s     (77.8 %), step = 500 ms          (1 %)
    tran: time = 41.41 s     (82.8 %), step = 500 ms          (1 %)
    tran: time = 43.91 s     (87.8 %), step = 500 ms          (1 %)
    tran: time = 46.41 s     (92.8 %), step = 500 ms          (1 %)
    tran: time = 48.91 s     (97.8 %), step = 500 ms          (1 %)
Number of accepted tran steps =             743

Maximum value achieved for any signal of each quantity: 
V: V(vout) = 3.3 V
I: I(V8:p) = 6.114 uA

~~~~~~~~~~~~~~~~~~~~~~~~~~~~~~~~~
Post-Transient Simulation Summary
~~~~~~~~~~~~~~~~~~~~~~~~~~~~~~~~~
   -   To further speed up simulation, consider
          add ++aps on command line
   -   Non-default settings that could significantly slow down simulation
          errpreset = conservative, default moderate
          reltol = 10e-06, default 100e-06 (conservative)
~~~~~~~~~~~~~~~~~~~~~~~~~~~~~~~~~


During simulation, the CPU load for active processors is :
         0 (12.7 %)      1 (78.4 %)      2 (38.1 %)      3 (34.1 %)
         4 (52.8 %)      5 (77.7 %)      6 (7.2 %)       7 (100.0 %)
         8 (14.7 %)      9 (46.0 %)     10 (40.3 %)     11 (11.1 %)
        12 (24.1 %)     13 (46.9 %)     14 (48.5 %)     15 (36.9 %)
        16 (35.8 %)     17 (49.1 %)     18 (57.0 %)     19 (39.1 %)
        20 (53.8 %)     21 (23.1 %)     22 (52.4 %)     23 (42.1 %)
        24 (46.3 %)     25 (83.1 %)     26 (19.8 %)     27 (34.0 %)
        28 (53.4 %)     29 (58.9 %)     30 (40.1 %)     31 (46.8 %)
        32 (58.5 %)     33 (91.2 %)     34 (5.9 %)      35 (30.3 %)
        36 (100.0 %)    37 (28.5 %)     38 (22.9 %)     39 (34.0 %)
        40 (100.0 %)    41 (19.7 %)     42 (42.0 %)     43 (39.3 %)
        44 (56.4 %)     45 (9.0 %)      46 (43.4 %)     47 (31.3 %)
        Total: 2116.7%
Initial condition solution time: CPU = 2.534 ms, elapsed = 2.53606 ms.
Intrinsic tran analysis time:    CPU = 413.3 ms, elapsed = 414.939 ms.
Total time required for tran analysis `tran': CPU = 418.585 ms, elapsed = 420.908 ms, util. = 99.4%.
Time accumulated: CPU = 5.14686 s, elapsed = 5.97517 s.
Peak resident memory used = 216 Mbytes.


Notice from spectre during transient analysis `tran', during Monte Carlo analysis `mc1'.
    34 warnings suppressed.

finalTimeOP: writing operating point information to rawfile.

Opening the PSF file ../psf/mc1_separate/009/finalTimeOP.info ...
modelParameter: writing model parameter values to rawfile.

Opening the PSF file ../psf/mc1_separate/009/modelParameter.info ...
element: writing instance parameter values to rawfile.

Opening the PSF file ../psf/mc1_separate/009/element.info ...
outputParameter: writing output parameter values to rawfile.

Opening the PSF file ../psf/mc1_separate/009/outputParameter.info ...
designParamVals: writing netlist parameters to rawfile.

Opening the PSFASCII file ../psf/mc1_separate/009/designParamVals.info ...
primitives: writing primitives to rawfile.

Opening the PSFASCII file ../psf/mc1_separate/009/primitives.info.primitives ...
subckts: writing subcircuits to rawfile.

Opening the PSFASCII file ../psf/mc1_separate/009/subckts.info.subckts ...
    mc1: iteration = 9           (33.3 %), step = 1            (4.17 %)
10  37.50% 

*****************************************************************************************
* 
* INFO: AMS_processOption = C35B4C3
* 
* INFO: Valid Modules  PIP VG5 HIRES
* 
*****************************************************************************************


Notice from spectre during Monte Carlo analysis `mc1'.
    V8: `period' has the unusually large value of 100 s.


***********************************************
Transient Analysis `tran': time = (0 s -> 50 s)
***********************************************

Opening the PSF file ../psf/mc1_separate/010/tran.tran.tran ...

Warning from spectre during check, during IC analysis, during transient analysis `tran', during Monte Carlo analysis `mc1'.
    WARNING (CMI-2943): Parameter checks have been ignored because the valid value for parameter 'trise' could not be found in 'C1'.
    WARNING (CMI-2943): Parameter checks have been ignored because the valid value for parameter 'trise' could not be found in 'I0.R2.CM'.
[...]


***********************************************
Transient Analysis `tran': time = (0 s -> 50 s)
***********************************************

Opening the PSF file ../psf/mc1_separate/023/tran.tran.tran ...

Warning from spectre during check, during IC analysis, during transient analysis `tran', during Monte Carlo analysis `mc1'.
    WARNING (CMI-2943): Parameter checks have been ignored because the valid value for parameter 'trise' could not be found in 'C1'.
    WARNING (CMI-2943): Parameter checks have been ignored because the valid value for parameter 'trise' could not be found in 'I0.R2.CM'.
    WARNING (CMI-2943): Parameter checks have been ignored because the valid value for parameter 'trise' could not be found in 'I0.R2.CS1'.
    WARNING (CMI-2943): Parameter checks have been ignored because the valid value for parameter 'trise' could not be found in 'I0.R2.CS0'.
    WARNING (CMI-2943): Parameter checks have been ignored because the valid value for parameter 'trise' could not be found in 'I0.C8<3>.C1'.
        Further occurrences of this warning will be suppressed.

Convergence achieved in 12 iterations.
DC simulation time: CPU = 2.269 ms, elapsed = 2.26903 ms.
Important parameter values:
    start = 0 s
    outputstart = 0 s
    stop = 50 s
    step = 50 ms
    maxstep = 500 ms
    ic = all
    useprevic = no
    skipdc = no
    reltol = 10e-06
    abstol(V) = 1 uV
    abstol(I) = 1 pA
    temp = 27 C
    tnom = 27 C
    tempeffects = all
    errpreset = conservative
    method = gear2only
    lteratio = 10
    relref = alllocal
    cmin = 0 F
    gmin = 1 pS
    rabsshort = 1 mOhm


Notice from spectre during transient analysis `tran', during Monte Carlo analysis `mc1'.
    Multithreading is disabled due to the size of the design being too small.


Output and IC/nodeset summary:
                 save   8       (current)
                 save   87      (voltage)

    tran: time = 1.275 s     (2.55 %), step = 112.5 ms     (225 m%)
    tran: time = 4.036 s     (8.07 %), step = 372.7 ms     (745 m%)
    tran: time = 6.377 s     (12.8 %), step = 500 ms          (1 %)
    tran: time = 8.877 s     (17.8 %), step = 500 ms          (1 %)
    tran: time = 11.38 s     (22.8 %), step = 500 ms          (1 %)
    tran: time = 13.88 s     (27.8 %), step = 500 ms          (1 %)
    tran: time = 16.38 s     (32.8 %), step = 500 ms          (1 %)
    tran: time = 18.88 s     (37.8 %), step = 500 ms          (1 %)
    tran: time = 21.38 s     (42.8 %), step = 500 ms          (1 %)
    tran: time = 23.88 s     (47.8 %), step = 500 ms          (1 %)
    tran: time = 26.38 s     (52.8 %), step = 500 ms          (1 %)
    tran: time = 28.88 s     (57.8 %), step = 500 ms          (1 %)
    tran: time = 31.38 s     (62.8 %), step = 500 ms          (1 %)
    tran: time = 33.88 s     (67.8 %), step = 500 ms          (1 %)
    tran: time = 36.38 s     (72.8 %), step = 500 ms          (1 %)
    tran: time = 38.88 s     (77.8 %), step = 500 ms          (1 %)
    tran: time = 41.38 s     (82.8 %), step = 500 ms          (1 %)
    tran: time = 43.88 s     (87.8 %), step = 500 ms          (1 %)
    tran: time = 46.38 s     (92.8 %), step = 500 ms          (1 %)
    tran: time = 48.88 s     (97.8 %), step = 500 ms          (1 %)
Number of accepted tran steps =             735

Maximum value achieved for any signal of each quantity: 
V: V(S<0>) = 3.3 V
I: I(V8:p) = 6.477 uA

~~~~~~~~~~~~~~~~~~~~~~~~~~~~~~~~~
Post-Transient Simulation Summary
~~~~~~~~~~~~~~~~~~~~~~~~~~~~~~~~~
   -   To further speed up simulation, consider
          add ++aps on command line
   -   Non-default settings that could significantly slow down simulation
          errpreset = conservative, default moderate
          reltol = 10e-06, default 100e-06 (conservative)
~~~~~~~~~~~~~~~~~~~~~~~~~~~~~~~~~


During simulation, the CPU load for active processors is :
         0 (16.0 %)      1 (88.9 %)      2 (36.8 %)      3 (37.0 %)
         4 (30.9 %)      5 (49.8 %)      6 (19.1 %)      7 (99.9 %)
         8 (29.0 %)      9 (42.1 %)     10 (50.4 %)     11 (16.5 %)
        12 (30.2 %)     13 (42.8 %)     14 (38.6 %)     15 (28.1 %)
        16 (48.9 %)     17 (44.7 %)     18 (61.3 %)     19 (44.6 %)
        20 (44.3 %)     21 (40.9 %)     22 (59.7 %)     23 (46.6 %)
        24 (38.5 %)     25 (66.7 %)     26 (36.0 %)     27 (37.1 %)
        28 (37.6 %)     29 (46.6 %)     30 (34.1 %)     31 (52.8 %)
        32 (35.6 %)     33 (92.4 %)     34 (33.5 %)     35 (61.9 %)
        36 (82.1 %)     37 (51.2 %)     38 (31.3 %)     39 (27.5 %)
        40 (99.9 %)     41 (20.1 %)     42 (37.5 %)     43 (41.3 %)
        44 (46.0 %)     45 (29.1 %)     46 (38.2 %)     47 (29.1 %)
        Total: 2153.0%
Initial condition solution time: CPU = 2.326 ms, elapsed = 2.32697 ms.
Intrinsic tran analysis time:    CPU = 395.515 ms, elapsed = 396.753 ms.
Total time required for tran analysis `tran': CPU = 400.213 ms, elapsed = 402.1 ms, util. = 99.5%.
Time accumulated: CPU = 11.3813 s, elapsed = 12.3896 s.
Peak resident memory used = 216 Mbytes.


Notice from spectre during transient analysis `tran', during Monte Carlo analysis `mc1'.
    34 warnings suppressed.

finalTimeOP: writing operating point information to rawfile.

Opening the PSF file ../psf/mc1_separate/023/finalTimeOP.info ...
modelParameter: writing model parameter values to rawfile.

Opening the PSF file ../psf/mc1_separate/023/modelParameter.info ...
element: writing instance parameter values to rawfile.

Opening the PSF file ../psf/mc1_separate/023/element.info ...
outputParameter: writing output parameter values to rawfile.

Opening the PSF file ../psf/mc1_separate/023/outputParameter.info ...
designParamVals: writing netlist parameters to rawfile.

Opening the PSFASCII file ../psf/mc1_separate/023/designParamVals.info ...
primitives: writing primitives to rawfile.

Opening the PSFASCII file ../psf/mc1_separate/023/primitives.info.primitives ...
subckts: writing subcircuits to rawfile.

Opening the PSFASCII file ../psf/mc1_separate/023/subckts.info.subckts ...
    mc1: iteration = 23          (91.7 %), step = 1            (4.17 %)
24  95.83% 

*****************************************************************************************
* 
* INFO: AMS_processOption = C35B4C3
* 
* INFO: Valid Modules  PIP VG5 HIRES
* 
*****************************************************************************************


Notice from spectre during Monte Carlo analysis `mc1'.
    V8: `period' has the unusually large value of 100 s.


***********************************************
Transient Analysis `tran': time = (0 s -> 50 s)
***********************************************

Opening the PSF file ../psf/mc1_separate/024/tran.tran.tran ...

Warning from spectre during check, during IC analysis, during transient analysis `tran', during Monte Carlo analysis `mc1'.
    WARNING (CMI-2943): Parameter checks have been ignored because the valid value for parameter 'trise' could not be found in 'C1'.
    WARNING (CMI-2943): Parameter checks have been ignored because the valid value for parameter 'trise' could not be found in 'I0.R2.CM'.
    WARNING (CMI-2943): Parameter checks have been ignored because the valid value for parameter 'trise' could not be found in 'I0.R2.CS1'.
    WARNING (CMI-2943): Parameter checks have been ignored because the valid value for parameter 'trise' could not be found in 'I0.R2.CS0'.
    WARNING (CMI-2943): Parameter checks have been ignored because the valid value for parameter 'trise' could not be found in 'I0.C8<3>.C1'.
        Further occurrences of this warning will be suppressed.

Convergence achieved in 12 iterations.
DC simulation time: CPU = 2.233 ms, elapsed = 2.23303 ms.
Important parameter values:
    start = 0 s
    outputstart = 0 s
    stop = 50 s
    step = 50 ms
    maxstep = 500 ms
    ic = all
    useprevic = no
    skipdc = no
    reltol = 10e-06
    abstol(V) = 1 uV
    abstol(I) = 1 pA
    temp = 27 C
    tnom = 27 C
    tempeffects = all
    errpreset = conservative
    method = gear2only
    lteratio = 10
    relref = alllocal
    cmin = 0 F
    gmin = 1 pS
    rabsshort = 1 mOhm


Notice from spectre during transient analysis `tran', during Monte Carlo analysis `mc1'.
    Multithreading is disabled due to the size of the design being too small.


Output and IC/nodeset summary:
                 save   8       (current)
                 save   87      (voltage)

    tran: time = 1.323 s     (2.65 %), step = 116.4 ms     (233 m%)
    tran: time = 3.822 s     (7.64 %), step = 356.9 ms     (714 m%)
    tran: time = 6.611 s     (13.2 %), step = 500 ms          (1 %)
    tran: time = 9.111 s     (18.2 %), step = 500 ms          (1 %)
    tran: time = 11.61 s     (23.2 %), step = 500 ms          (1 %)
    tran: time = 14.11 s     (28.2 %), step = 500 ms          (1 %)
    tran: time = 16.61 s     (33.2 %), step = 500 ms          (1 %)
    tran: time = 19.11 s     (38.2 %), step = 500 ms          (1 %)
    tran: time = 21.61 s     (43.2 %), step = 500 ms          (1 %)
    tran: time = 24.11 s     (48.2 %), step = 500 ms          (1 %)
    tran: time = 26.61 s     (53.2 %), step = 500 ms          (1 %)
    tran: time = 29.11 s     (58.2 %), step = 500 ms          (1 %)
    tran: time = 31.61 s     (63.2 %), step = 500 ms          (1 %)
    tran: time = 34.11 s     (68.2 %), step = 500 ms          (1 %)
    tran: time = 36.61 s     (73.2 %), step = 500 ms          (1 %)
    tran: time = 39.11 s     (78.2 %), step = 500 ms          (1 %)
    tran: time = 41.61 s     (83.2 %), step = 500 ms          (1 %)
    tran: time = 44.11 s     (88.2 %), step = 500 ms          (1 %)
    tran: time = 46.61 s     (93.2 %), step = 500 ms          (1 %)
    tran: time = 49.11 s     (98.2 %), step = 500 ms          (1 %)
Number of accepted tran steps =             739

Maximum value achieved for any signal of each quantity: 
V: V(vout) = 3.3 V
I: I(V8:p) = 6.595 uA

~~~~~~~~~~~~~~~~~~~~~~~~~~~~~~~~~
Post-Transient Simulation Summary
~~~~~~~~~~~~~~~~~~~~~~~~~~~~~~~~~
   -   To further speed up simulation, consider
          add ++aps on command line
   -   Non-default settings that could significantly slow down simulation
          errpreset = conservative, default moderate
          reltol = 10e-06, default 100e-06 (conservative)
~~~~~~~~~~~~~~~~~~~~~~~~~~~~~~~~~


During simulation, the CPU load for active processors is :
         0 (15.6 %)      1 (88.3 %)      2 (36.1 %)      3 (37.1 %)
         4 (30.0 %)      5 (49.2 %)      6 (21.2 %)      7 (99.9 %)
         8 (28.2 %)      9 (40.8 %)     10 (52.0 %)     11 (18.2 %)
        12 (29.8 %)     13 (41.4 %)     14 (37.4 %)     15 (30.4 %)
        16 (47.8 %)     17 (43.2 %)     18 (59.3 %)     19 (43.3 %)
        20 (46.2 %)     21 (43.1 %)     22 (60.6 %)     23 (48.5 %)
        24 (38.5 %)     25 (64.4 %)     26 (34.9 %)     27 (36.8 %)
        28 (39.8 %)     29 (48.4 %)     30 (33.5 %)     31 (51.0 %)
        32 (36.2 %)     33 (89.3 %)     34 (32.7 %)     35 (63.1 %)
        36 (79.7 %)     37 (52.9 %)     38 (32.0 %)     39 (29.8 %)
        40 (96.6 %)     41 (19.6 %)     42 (36.9 %)     43 (42.5 %)
        44 (44.5 %)     45 (28.5 %)     46 (38.2 %)     47 (28.7 %)
        Total: 2146.3%
Initial condition solution time: CPU = 2.268 ms, elapsed = 2.26903 ms.
Intrinsic tran analysis time:    CPU = 402.188 ms, elapsed = 403.822 ms.
Total time required for tran analysis `tran': CPU = 406.798 ms, elapsed = 409.017 ms, util. = 99.5%.
Time accumulated: CPU = 11.8293 s, elapsed = 12.8503 s.
Peak resident memory used = 216 Mbytes.


Notice from spectre during transient analysis `tran', during Monte Carlo analysis `mc1'.
    34 warnings suppressed.

finalTimeOP: writing operating point information to rawfile.

Opening the PSF file ../psf/mc1_separate/024/finalTimeOP.info ...
modelParameter: writing model parameter values to rawfile.

Opening the PSF file ../psf/mc1_separate/024/modelParameter.info ...
element: writing instance parameter values to rawfile.

Opening the PSF file ../psf/mc1_separate/024/element.info ...
outputParameter: writing output parameter values to rawfile.

Opening the PSF file ../psf/mc1_separate/024/outputParameter.info ...
designParamVals: writing netlist parameters to rawfile.

Opening the PSFASCII file ../psf/mc1_separate/024/designParamVals.info ...
primitives: writing primitives to rawfile.

Opening the PSFASCII file ../psf/mc1_separate/024/primitives.info.primitives ...
subckts: writing subcircuits to rawfile.

Opening the PSFASCII file ../psf/mc1_separate/024/subckts.info.subckts ...
    mc1: iteration = 24          (95.8 %), step = 1            (4.17 %)
25 100.00% 

*****************************************************************************************
* 
* INFO: AMS_processOption = C35B4C3
* 
* INFO: Valid Modules  PIP VG5 HIRES
* 
*****************************************************************************************


Notice from spectre during Monte Carlo analysis `mc1'.
    V8: `period' has the unusually large value of 100 s.


***********************************************
Transient Analysis `tran': time = (0 s -> 50 s)
***********************************************

Opening the PSF file ../psf/mc1_separate/025/tran.tran.tran ...

Warning from spectre during check, during IC analysis, during transient analysis `tran', during Monte Carlo analysis `mc1'.
    WARNING (CMI-2943): Parameter checks have been ignored because the valid value for parameter 'trise' could not be found in 'C1'.
    WARNING (CMI-2943): Parameter checks have been ignored because the valid value for parameter 'trise' could not be found in 'I0.R2.CM'.
    WARNING (CMI-2943): Parameter checks have been ignored because the valid value for parameter 'trise' could not be found in 'I0.R2.CS1'.
    WARNING (CMI-2943): Parameter checks have been ignored because the valid value for parameter 'trise' could not be found in 'I0.R2.CS0'.
    WARNING (CMI-2943): Parameter checks have been ignored because the valid value for parameter 'trise' could not be found in 'I0.C8<3>.C1'.
        Further occurrences of this warning will be suppressed.

Convergence achieved in 12 iterations.
DC simulation time: CPU = 2.07 ms, elapsed = 2.07186 ms.
Important parameter values:
    start = 0 s
    outputstart = 0 s
    stop = 50 s
    step = 50 ms
    maxstep = 500 ms
    ic = all
    useprevic = no
    skipdc = no
    reltol = 10e-06
    abstol(V) = 1 uV
    abstol(I) = 1 pA
    temp = 27 C
    tnom = 27 C
    tempeffects = all
    errpreset = conservative
    method = gear2only
    lteratio = 10
    relref = alllocal
    cmin = 0 F
    gmin = 1 pS
    rabsshort = 1 mOhm


Notice from spectre during transient analysis `tran', during Monte Carlo analysis `mc1'.
    Multithreading is disabled due to the size of the design being too small.


Output and IC/nodeset summary:
                 save   8       (current)
                 save   87      (voltage)

    tran: time = 1.264 s     (2.53 %), step = 31.72 ms    (63.4 m%)
    tran: time = 3.77 s      (7.54 %), step = 277.4 ms     (555 m%)
    tran: time = 6.598 s     (13.2 %), step = 500 ms          (1 %)
    tran: time = 9.098 s     (18.2 %), step = 500 ms          (1 %)
    tran: time = 11.6 s      (23.2 %), step = 500 ms          (1 %)
    tran: time = 14.1 s      (28.2 %), step = 500 ms          (1 %)
    tran: time = 16.6 s      (33.2 %), step = 500 ms          (1 %)
    tran: time = 19.1 s      (38.2 %), step = 500 ms          (1 %)
    tran: time = 21.6 s      (43.2 %), step = 500 ms          (1 %)
    tran: time = 24.1 s      (48.2 %), step = 500 ms          (1 %)
    tran: time = 26.6 s      (53.2 %), step = 500 ms          (1 %)
    tran: time = 29.1 s      (58.2 %), step = 500 ms          (1 %)
    tran: time = 31.6 s      (63.2 %), step = 500 ms          (1 %)
    tran: time = 34.1 s      (68.2 %), step = 500 ms          (1 %)
    tran: time = 36.6 s      (73.2 %), step = 500 ms          (1 %)
    tran: time = 39.1 s      (78.2 %), step = 500 ms          (1 %)
    tran: time = 41.6 s      (83.2 %), step = 500 ms          (1 %)
    tran: time = 44.1 s      (88.2 %), step = 500 ms          (1 %)
    tran: time = 46.6 s      (93.2 %), step = 500 ms          (1 %)
    tran: time = 49.1 s      (98.2 %), step = 500 ms          (1 %)
Number of accepted tran steps =             744

Maximum value achieved for any signal of each quantity: 
V: V(vout) = 3.3 V
I: I(V8:p) = 6.558 uA

~~~~~~~~~~~~~~~~~~~~~~~~~~~~~~~~~
Post-Transient Simulation Summary
~~~~~~~~~~~~~~~~~~~~~~~~~~~~~~~~~
   -   To further speed up simulation, consider
          add ++aps on command line
   -   Non-default settings that could significantly slow down simulation
          errpreset = conservative, default moderate
          reltol = 10e-06, default 100e-06 (conservative)
~~~~~~~~~~~~~~~~~~~~~~~~~~~~~~~~~


During simulation, the CPU load for active processors is :
         0 (17.1 %)      1 (88.5 %)      2 (35.1 %)      3 (36.0 %)
         4 (29.1 %)      5 (47.6 %)      6 (21.7 %)      7 (99.9 %)
         8 (27.4 %)      9 (39.5 %)     10 (50.6 %)     11 (21.0 %)
        12 (31.4 %)     13 (41.9 %)     14 (38.0 %)     15 (29.4 %)
        16 (47.3 %)     17 (41.8 %)     18 (57.3 %)     19 (41.9 %)
        20 (47.2 %)     21 (44.9 %)     22 (61.4 %)     23 (47.2 %)
        24 (39.0 %)     25 (63.1 %)     26 (33.8 %)     27 (35.7 %)
        28 (40.3 %)     29 (47.8 %)     30 (32.8 %)     31 (49.5 %)
        32 (38.4 %)     33 (86.4 %)     34 (31.7 %)     35 (64.4 %)
        36 (77.6 %)     37 (54.6 %)     38 (34.5 %)     39 (32.3 %)
        40 (93.5 %)     41 (19.0 %)     42 (35.9 %)     43 (44.6 %)
        44 (43.4 %)     45 (27.6 %)     46 (37.3 %)     47 (27.8 %)
        Total: 2133.9%
Initial condition solution time: CPU = 2.105 ms, elapsed = 2.10619 ms.
Intrinsic tran analysis time:    CPU = 408.097 ms, elapsed = 409.74 ms.
Total time required for tran analysis `tran': CPU = 412.307 ms, elapsed = 414.763 ms, util. = 99.4%.
Time accumulated: CPU = 12.2816 s, elapsed = 13.3159 s.
Peak resident memory used = 216 Mbytes.


Notice from spectre during transient analysis `tran', during Monte Carlo analysis `mc1'.
    34 warnings suppressed.

finalTimeOP: writing operating point information to rawfile.

Opening the PSF file ../psf/mc1_separate/025/finalTimeOP.info ...
modelParameter: writing model parameter values to rawfile.

Opening the PSF file ../psf/mc1_separate/025/modelParameter.info ...
element: writing instance parameter values to rawfile.

Opening the PSF file ../psf/mc1_separate/025/element.info ...
outputParameter: writing output parameter values to rawfile.

Opening the PSF file ../psf/mc1_separate/025/outputParameter.info ...
designParamVals: writing netlist parameters to rawfile.

Opening the PSFASCII file ../psf/mc1_separate/025/designParamVals.info ...
primitives: writing primitives to rawfile.

Opening the PSFASCII file ../psf/mc1_separate/025/primitives.info.primitives ...
subckts: writing subcircuits to rawfile.

Opening the PSFASCII file ../psf/mc1_separate/025/subckts.info.subckts ...
    mc1: iteration = 25           (100 %), step = 1            (4.17 %)
Total time required for montecarlo analysis `mc1': CPU = 11.724 s, elapsed = 12.0658 s, util. = 97.2%.
Time accumulated: CPU = 12.3072 s, elapsed = 13.3529 s.
Peak resident memory used = 216 Mbytes.

Licensing Information:
Lic Summary:
[09:36:49.248267] Cdslmd servers:3000@lic08.ug.kth.se:29000@lic06.ug.kth.se
[09:36:49.248307] Feature usage summary:
[09:36:49.248307] Virtuoso_Multi_mode_Simulation


Aggregate audit (9:36:49 AM, Thur Apr 16, 2026):
Time used: CPU = 12.3 s, elapsed = 13.4 s, util. = 92.2%.
Time spent in licensing: elapsed = 23.3 ms.
Peak memory used = 216 Mbytes.
Simulation started at: 9:36:35 AM, Thur Apr 16, 2026, ended at: 9:36:49 AM, Thur Apr 16, 2026, with elapsed time (wall clock): 13.4 s.
spectre completes with 0 errors, 147 warnings, and 85 notices.
