
Spectre (R) Circuit Simulator
Version 24.1.0.288.isr5 64bit -- 3 Apr 2025
Copyright (C) 1989-2025 Cadence Design Systems, Inc. All rights reserved worldwide. Cadence and Spectre are registered trademarks of Cadence Design Systems, Inc. All others are the property of their respective holders.

Includes RSA BSAFE(R) Cryptographic or Security Protocol Software from RSA Security, Inc.

User: davidevi   Host: il2244vt26_davidevi   HostID: 11AC2C00   PID: 1024612
Memory  available: 3.0321 TB  physical: 3.2467 TB
Linux   : Rocky Linux release 8.10 (Green Obsidian)
CPU Type: Intel(R) Xeon(R) CPU E7-8857 v2 @ 3.00GHz
        Socket: Processors [Frequency]
        0:       0 [3600.0],  1 [2999.9],  2 [2999.9],  3 [2999.9],  4 [1200.0]
                 5 [1200.0],  6 [1200.0],  7 [1200.0],  8 [1200.0],  9 [1200.0]
                10 [1200.0], 11 [1200.0]
        1:      12 [1200.0], 13 [2600.0], 14 [3125.2], 15 [3600.0], 16 [2500.0]
                17 [1200.0], 18 [3600.0], 19 [2999.9], 20 [2999.9], 21 [1200.0]
                22 [2999.9], 23 [2500.0]
        2:      24 [3600.0], 25 [2500.0], 26 [1200.0], 27 [2999.9], 28 [2999.9]
                29 [2500.0], 30 [1200.0], 31 [1200.0], 32 [2600.0], 33 [1200.0]
                34 [1200.0], 35 [1200.0]
        3:      36 [1200.0], 37 [1200.0], 38 [2800.0], 39 [2999.9], 40 [2400.0]
                41 [1200.0], 42 [1200.0], 43 [1200.0], 44 [1200.0], 45 [2300.0]
                46 [1200.0], 47 [2999.9]
        
System load averages (1min, 5min, 15min) : 23.7 %, 23.4 %, 24.2 %
HPC is enabled


Simulating `input.scs' on il2244vt26_davidevi at 4:50:15 PM, Wed Apr 15, 2026 (process id: 1024612).
Current working directory: /home/davidevi/Desktop/myproject/Sim/VGA/VGA_1_wakeup_tb/adexl/results/data/MonteCarlo.0/12/wakeup/groupRunDataDir/netlist
Command line:
    /opt/tools/cadence/installs/SPECTRE241/tools/bin/spectre -64  \
        input.scs +escchars +log ../psf/spectre.out -format psfbin  \
        +rtsf -raw ../psf +aps +mt +lqtimeout 900 -maxw 5 -maxn 5  \
        +param /opt/pdk/ams/410/spectre/ams_range.lmts -env ade  \
        -ahdllibdir  \
        /home/davidevi/Desktop/myproject/Sim/VGA/VGA_1_wakeup_tb/adexl/results/data/MonteCarlo.0/sharedData/Job456/ahdl/input.ahdlSimDB  \
        +logstatus  \
        +adespetkn=0001089D13A302B663E41FB550AF0DF415A679A322D5069144BF588C12F604E07EF416DC01A319B562BB63D350F716BE45A37AFD3EFE109D51D369F579D64F9266EC79D15D9175FF34986BDD0AF002BA50FD7FD707E002A700AC1C801BFD45E00EAD79D128F874D3349879D118F874D33498100ED93EB5155D47000036AF

Simulation Id: bmBHfgeKdNZoBPRt
Licensing Information:
[16:50:15.121746] Configured Lic search path (24.01-s002): 3000@lic08.ug.kth.se:29000@lic06.ug.kth.se

Licensing Information:
[16:50:15.524099] Periodic Lic check successful

Loading /opt/tools/cadence/installs/SPECTRE241/tools.lnx86/cmi/lib/64bit/5.0/libinfineon_sh.so ...
Loading /opt/tools/cadence/installs/SPECTRE241/tools.lnx86/cmi/lib/64bit/5.0/libphilips_I_sh.so ...
Loading /opt/tools/cadence/installs/SPECTRE241/tools.lnx86/cmi/lib/64bit/5.0/libphilips_sh.so ...
Loading /opt/tools/cadence/installs/SPECTRE241/tools.lnx86/cmi/lib/64bit/5.0/libsparam_sh.so ...
Loading /opt/tools/cadence/installs/SPECTRE241/tools.lnx86/cmi/lib/64bit/5.0/libstmodels_sh.so ...

Warning from spectre.
    WARNING (SPECTRE-691): This CPU processor does not support x86 advanced vector extensions instructions. This may affect math operations and slow down the simulation.

Reading file:  /home/davidevi/Desktop/myproject/Sim/VGA/VGA_1_wakeup_tb/adexl/results/data/MonteCarlo.0/12/wakeup/groupRunDataDir/netlist/input.scs
Reading file:  /opt/pdk/ams/410/spectre/ams_range.lmts

Warning from spectre during read of parameter soft limits file `/opt/pdk/ams/410/spectre/ams_range.lmts', during circuit read-in.
    WARNING (SPECTRE-8360): line 1511: `ac' is an undefined primitive device.
    WARNING (SPECTRE-8360): line 1512: `ac' is an undefined primitive device.
    WARNING (SPECTRE-8360): line 1513: `ac' is an undefined primitive device.
    WARNING (SPECTRE-8360): line 1514: `ac' is an undefined primitive device.
    WARNING (SPECTRE-8360): line 1515: `ac' is an undefined primitive device.
        Further occurrences of this warning will be suppressed.

Reading file:  /opt/tools/cadence/installs/SPECTRE241/tools.lnx86/spectre/etc/configs/spectre.cfg
Reading file:  /opt/pdk/ams/410/spectre/c35/soac/soac.scs
Reading file:  /opt/pdk/ams/410/spectre/c35/soac/processOption.scs
Reading file:  /opt/pdk/ams/410/spectre/c35/soac/process.scs
Reading file:  /opt/pdk/ams/410/spectre/c35/soac/soac.va

Warning from spectre during AHDL read-in.
    WARNING (VACOMP-2435): The environment variable CDS_AHDLCMI_ENABLE is no longer supported. Therefore, the simulator will use the default compiled C code flow.

Reading link:  /opt/tools/cadence/installs/SPECTRE241/tools.lnx86/spectre/etc/ahdl/constants.h
Reading file:  /opt/tools/cadence/installs/SPECTRE241/tools.lnx86/spectre/etc/ahdl/constants.vams
Reading link:  /opt/tools/cadence/installs/SPECTRE241/tools.lnx86/spectre/etc/ahdl/discipline.h
Reading file:  /opt/tools/cadence/installs/SPECTRE241/tools.lnx86/spectre/etc/ahdl/disciplines.vams
Reading file:  /opt/pdk/ams/410/spectre/c35/processOption/C35B4C3.scs
Reading file:  /opt/pdk/ams/410/spectre/c35/soac/cmos53.scs
Reading file:  /opt/pdk/ams/410/spectre/c35/soac/res.scs
Reading file:  /opt/pdk/ams/410/spectre/c35/soac/cap.scs
Reading file:  /opt/pdk/ams/410/spectre/c35/soac/bip.scs
Reading file:  /opt/pdk/ams/410/spectre/c35/soac/ind.scs
Reading file:  /opt/pdk/ams/410/spectre/c35/soac/esddiode.scs
Time for NDB Parsing: CPU = 163.619 ms, elapsed = 327.592 ms.
Time accumulated: CPU = 361.713 ms, elapsed = 327.596 ms.
Peak resident memory used = 175 Mbytes.

Existing shared object for module modn_ahdl is up to date.
Installed compiled interface for modn_ahdl.
Existing shared object for module modp_ahdl is up to date.
Installed compiled interface for modp_ahdl.
Existing shared object for module cpoly_ahdl is up to date.
Installed compiled interface for cpoly_ahdl.
Existing shared object for module rpolyh_ahdl is up to date.
Installed compiled interface for rpolyh_ahdl.
Existing shared object for module bsource_19b458 is up to date.
Installed compiled interface for bsource_19b458.
Time for Elaboration: CPU = 56.452 ms, elapsed = 60.05 ms.
Time accumulated: CPU = 418.301 ms, elapsed = 387.782 ms.
Peak resident memory used = 188 Mbytes.


Notice from spectre during hierarchy flattening.
    The value 'psf' specified for the 'checklimitdest' option will no longer be supported in future releases. Use 'spectre -h' to see other recommended values for the 'checklimitdest' option.


*****************************************************************************************
* 
* INFO: AMS_processOption = C35B4C3
* 
* INFO: Valid Modules  PIP VG5 HIRES
* 
*****************************************************************************************


Notice from spectre during hierarchy flattening.
    V8: `period' has the unusually large value of 100 s.


Time for EDB Visiting: CPU = 8.572 ms, elapsed = 8.57186 ms.
Time accumulated: CPU = 426.99 ms, elapsed = 396.471 ms.
Peak resident memory used = 191 Mbytes.

Loading /opt/tools/cadence/installs/SPECTRE241/tools.lnx86/mdl/lib/64bit/libSpectreEH_sh.so ...

Warning from spectre during initial setup.
    WARNING (SPECTRE-16460): SOAC_cvarm_vspsub:Specified subcircuit master `cvarm' was not found.
    WARNING (SPECTRE-16462): SOAC_cvarm_vspsub:Error in specification of subcircuit master. Assert is ignored.
    WARNING (SPECTRE-16460): SOAC_cvarm_vbs:Specified subcircuit master `cvarm' was not found.
    WARNING (SPECTRE-16462): SOAC_cvarm_vbs:Error in specification of subcircuit master. Assert is ignored.
    WARNING (SPECTRE-16460): SOAC_cvarm_vgb:Specified subcircuit master `cvarm' was not found.
    WARNING (SPECTRE-16462): SOAC_cvarm_vgb:Error in specification of subcircuit master. Assert is ignored.
    WARNING (SPECTRE-16460): SOAC_cvart_vspsub:Specified subcircuit master `cvart' was not found.
    WARNING (SPECTRE-16462): SOAC_cvart_vspsub:Error in specification of subcircuit master. Assert is ignored.
    WARNING (SPECTRE-16460): SOAC_cvart_vbs:Specified subcircuit master `cvart' was not found.
        Further occurrences of this warning will be suppressed.
    WARNING (SPECTRE-16462): SOAC_cvart_vbs:Error in specification of subcircuit master. Assert is ignored.
        Further occurrences of this warning will be suppressed.
Notice from spectre during topology check.
    Only one connection to the following 54 nodes:
        I0.MN6.psub!
        I0.MN5.psub!
        I0.MN4.psub!
        I0.MN3.psub!
        I0.MN2.psub!
        Further occurrences of this notice will be suppressed.
Notice from spectre during initial setup.
    Multithreading is disabled due to the size of the design being too small.


Netlist title:
        // Point Netlist Generated on: Apr 15 16:50:14 2026


Global user options:
         psfversion = 1.4.0
            vabstol = 1e-06
            iabstol = 1e-12
               temp = -40
           homotopy = 5
              limit = delta
         compatible = spice2
               gmin = 1e-12
             rforce = 1
           maxnotes = 5
           maxwarns = 5
             digits = 5
               cols = 80
             pivrel = 0.001
           sensfile = ../psf/sens.output
     checklimitdest = psf
     enable_pre_ver = yes
      ignorezerovar = yes
               save = allpub
             reltol = 0.0001
               tnom = 27
             scalem = 1
              scale = 1

Scoped user options:

Circuit inventory:
              nodes 88
            bsim3v3 35    
     bsource_19b458 2     
          capacitor 38    
         cpoly_ahdl 17    
            isource 1     
          modn_ahdl 19    
          modp_ahdl 16    
           resistor 1     
        rpolyh_ahdl 2     
            vsource 8     

Analysis and control statement inventory:
               info 7     
         montecarlo 1     
               tran 1     

Output statements:
             .probe 0     
           .measure 0     
               save 0     

Design checks inventory:
          paramtest 55    
             assert 175   


Notice from spectre during initial setup.
    APS enabled.
    1 notice suppressed.
    72 warnings suppressed.

Time for parsing: CPU = 18.435 ms, elapsed = 641.577 ms.
Time accumulated: CPU = 445.528 ms, elapsed = 1.03815 s.
Peak resident memory used = 198 Mbytes.

~~~~~~~~~~~~~~~~~~~~~~
Pre-Simulation Summary
~~~~~~~~~~~~~~~~~~~~~~
   -   (APS) Multi-threading. The recommended number of threads is 1, consider adding +mt=1 on command line.
~~~~~~~~~~~~~~~~~~~~~~

**************************************************
Monte Carlo Analysis `mc1': iteration = (1 -> 100)
**************************************************
Important parameter values:
    seed = 12345
    sampling = lds
    variations = all
    firstrun = 1
    numruns = 100
    nullmfactorcorrelation = no
    donominal = yes
    method = standard

**** Performing nominal run for `mc1'

Notice from spectre during transient analysis `tran', during Monte Carlo analysis `mc1'.
    No checklimit analysis defined for asserts. A default checklimit analysis 'SpectreChecklimitAnal' has been created with all asserts enabled.


***********************************************
Transient Analysis `tran': time = (0 s -> 50 s)
***********************************************

Warning from spectre during check, during IC analysis, during transient analysis `tran', during Monte Carlo analysis `mc1'.
    WARNING (CMI-2943): Parameter checks have been ignored because the valid value for parameter 'trise' could not be found in 'C1'.
    WARNING (CMI-2943): Parameter checks have been ignored because the valid value for parameter 'trise' could not be found in 'I0.R2.CM'.
    WARNING (CMI-2943): Parameter checks have been ignored because the valid value for parameter 'trise' could not be found in 'I0.R2.CS1'.
    WARNING (CMI-2943): Parameter checks have been ignored because the valid value for parameter 'trise' could not be found in 'I0.R2.CS0'.
    WARNING (CMI-2943): Parameter checks have been ignored because the valid value for parameter 'trise' could not be found in 'I0.C3.C1'.
        Further occurrences of this warning will be suppressed.

Convergence achieved in 12 iterations.
DC simulation time: CPU = 2.862 ms, elapsed = 2.87795 ms.

Opening the PSF file ../psf/nom/tran.tran.tran ...
Important parameter values:
    start = 0 s
    outputstart = 0 s
    stop = 50 s
    step = 50 ms
    maxstep = 500 ms
    ic = all
    useprevic = no
    skipdc = no
    reltol = 10e-06
    abstol(V) = 1 uV
    abstol(I) = 1 pA
    temp = -40 C
    tnom = 27 C
    tempeffects = all
    errpreset = conservative
    method = gear2only
    lteratio = 10
    relref = alllocal
    cmin = 0 F
    gmin = 1 pS
    rabsshort = 1 mOhm


Notice from spectre during transient analysis `tran', during Monte Carlo analysis `mc1'.
    Multithreading is disabled due to the size of the design being too small.


Output and IC/nodeset summary:
                 save   8       (current)
                 save   87      (voltage)

    tran: time = 1.312 s     (2.62 %), step = 101.2 ms     (202 m%)
    tran: time = 4.094 s     (8.19 %), step = 404.7 ms     (809 m%)
    tran: time = 6.536 s     (13.1 %), step = 500 ms          (1 %)
    tran: time = 9.036 s     (18.1 %), step = 500 ms          (1 %)
    tran: time = 11.54 s     (23.1 %), step = 500 ms          (1 %)
    tran: time = 14.04 s     (28.1 %), step = 500 ms          (1 %)
    tran: time = 16.54 s     (33.1 %), step = 500 ms          (1 %)
    tran: time = 19.04 s     (38.1 %), step = 500 ms          (1 %)
    tran: time = 21.54 s     (43.1 %), step = 500 ms          (1 %)
    tran: time = 24.04 s     (48.1 %), step = 500 ms          (1 %)
    tran: time = 26.54 s     (53.1 %), step = 500 ms          (1 %)
    tran: time = 29.04 s     (58.1 %), step = 500 ms          (1 %)
    tran: time = 31.54 s     (63.1 %), step = 500 ms          (1 %)
    tran: time = 34.04 s     (68.1 %), step = 500 ms          (1 %)
    tran: time = 36.54 s     (73.1 %), step = 500 ms          (1 %)
    tran: time = 39.04 s     (78.1 %), step = 500 ms          (1 %)
    tran: time = 41.54 s     (83.1 %), step = 500 ms          (1 %)
    tran: time = 44.04 s     (88.1 %), step = 500 ms          (1 %)
    tran: time = 46.54 s     (93.1 %), step = 500 ms          (1 %)
    tran: time = 49.04 s     (98.1 %), step = 500 ms          (1 %)
Number of accepted tran steps =             728

Maximum value achieved for any signal of each quantity: 
V: V(S<0>) = 3.3 V
I: I(V8:p) = 6.465 uA

~~~~~~~~~~~~~~~~~~~~~~~~~~~~~~~~~
Post-Transient Simulation Summary
~~~~~~~~~~~~~~~~~~~~~~~~~~~~~~~~~
   -   To further speed up simulation, consider
          add ++aps on command line
   -   Non-default settings that could significantly slow down simulation
          errpreset = conservative, default moderate
          reltol = 10e-06, default 100e-06 (conservative)
~~~~~~~~~~~~~~~~~~~~~~~~~~~~~~~~~


During simulation, the CPU load for active processors is :
         0 (21.8 %)      1 (100.0 %)     2 (100.0 %)     3 (79.9 %)
         4 (5.0 %)       5 (2.9 %)       6 (2.9 %)       7 (2.2 %)
         8 (2.1 %)       9 (1.4 %)      10 (1.4 %)      11 (3.6 %)
        12 (9.0 %)      13 (27.5 %)     14 (66.0 %)     15 (3.6 %)
        16 (2.9 %)      17 (24.1 %)     18 (10.6 %)     19 (51.0 %)
        20 (44.8 %)     21 (80.4 %)     22 (97.2 %)     23 (10.8 %)
        24 (91.5 %)     25 (5.7 %)      26 (5.0 %)      27 (10.1 %)
        28 (100.0 %)    29 (7.1 %)      30 (2.9 %)      31 (19.3 %)
        32 (12.1 %)     33 (7.2 %)      34 (19.3 %)     35 (4.2 %)
        36 (35.0 %)     37 (22.1 %)     38 (2.1 %)      39 (16.7 %)
        40 (19.3 %)     41 (63.4 %)     42 (5.0 %)      43 (30.7 %)
        44 (5.6 %)      45 (5.0 %)      46 (35.5 %)     47 (3.6 %)
        Total: 1279.4%
Initial condition solution time: CPU = 2.904 ms, elapsed = 2.92206 ms.
Intrinsic tran analysis time:    CPU = 438.641 ms, elapsed = 440.521 ms.
Total time required for tran analysis `tran': CPU = 525.45 ms, elapsed = 531.532 ms, util. = 98.9%.
Time accumulated: CPU = 997.542 ms, elapsed = 1.5979 s.
Peak resident memory used = 209 Mbytes.


Notice from spectre during transient analysis `tran', during Monte Carlo analysis `mc1'.
    34 warnings suppressed.

finalTimeOP: writing operating point information to rawfile.

Opening the PSF file ../psf/nom/finalTimeOP.info ...
modelParameter: writing model parameter values to rawfile.

Opening the PSF file ../psf/nom/modelParameter.info ...
element: writing instance parameter values to rawfile.

Opening the PSF file ../psf/nom/element.info ...
outputParameter: writing output parameter values to rawfile.

Opening the PSF file ../psf/nom/outputParameter.info ...
designParamVals: writing netlist parameters to rawfile.

Opening the PSFASCII file ../psf/nom/designParamVals.info ...
primitives: writing primitives to rawfile.

Opening the PSFASCII file ../psf/nom/primitives.info.primitives ...
subckts: writing subcircuits to rawfile.

Opening the PSFASCII file ../psf/nom/subckts.info.subckts ...
Opening iteration number and data-directory mapping file:  /home/davidevi/Desktop/myproject/Sim/VGA/VGA_1_wakeup_tb/adexl/results/data/MonteCarlo.0/12/wakeup/groupRunDataDir/netlist/../psf/mc1.mapping

Statistical parameters:
    Defined process parameters: 629
    Defined mismatch parameters (subckt based): 86
    Non-referenced mismatch parameters: 80
    Number of random variables: 718
    Gaussian truncation for process parameters: 4.00 sigma
    Gaussian truncation for mismatch parameters: 4.00 sigma


Opening the PSF file ../psf/mc1_tran.montecarlo ...

Opening the PSF file ../psf/mc1_finalTimeOP.montecarlo ...

Opening the PSF file ../psf/mc1_modelParameter.montecarlo ...

Opening the PSF file ../psf/mc1_element.montecarlo ...

Opening the PSF file ../psf/mc1_outputParameter.montecarlo ...

Opening the PSF file ../psf/mc1_designParamVals.montecarlo ...

Opening the PSF file ../psf/mc1_primitives.montecarlo ...

Opening the PSF file ../psf/mc1_subckts.montecarlo ...

**** Performing monte carlo loop for `mc1'

1   0.00% 

*****************************************************************************************
* 
* INFO: AMS_processOption = C35B4C3
* 
* INFO: Valid Modules  PIP VG5 HIRES
* 
*****************************************************************************************


Notice from spectre at iteration = 1 during Monte Carlo analysis `mc1'.
    V8: `period' has the unusually large value of 100 s.


***********************************************
Transient Analysis `tran': time = (0 s -> 50 s)
***********************************************

Opening the PSF file ../psf/mc1_separate/001/tran.tran.tran ...

Warning from spectre at iteration = 1 during check, during IC analysis, during transient analysis `tran', during Monte Carlo analysis `mc1'.
    WARNING (CMI-2943): Parameter checks have been ignored because the valid value for parameter 'trise' could not be found in 'C1'.
    WARNING (CMI-2943): Parameter checks have been ignored because the valid value for parameter 'trise' could not be found in 'I0.R2.CM'.
    WARNING (CMI-2943): Parameter checks have been ignored because the valid value for parameter 'trise' could not be found in 'I0.R2.CS1'.
    WARNING (CMI-2943): Parameter checks have been ignored because the valid value for parameter 'trise' could not be found in 'I0.R2.CS0'.
    WARNING (CMI-2943): Parameter checks have been ignored because the valid value for parameter 'trise' could not be found in 'I0.C3.C1'.
        Further occurrences of this warning will be suppressed.

Convergence achieved in 12 iterations.
DC simulation time: CPU = 2.559 ms, elapsed = 2.55919 ms.
Important parameter values:
    start = 0 s
    outputstart = 0 s
    stop = 50 s
    step = 50 ms
    maxstep = 500 ms
    ic = all
    useprevic = no
    skipdc = no
    reltol = 10e-06
    abstol(V) = 1 uV
    abstol(I) = 1 pA
    temp = -40 C
    tnom = 27 C
    tempeffects = all
    errpreset = conservative
    method = gear2only
    lteratio = 10
    relref = alllocal
    cmin = 0 F
    gmin = 1 pS
    rabsshort = 1 mOhm


Notice from spectre at iteration = 1 during transient analysis `tran', during Monte Carlo analysis `mc1'.
    Multithreading is disabled due to the size of the design being too small.


Output and IC/nodeset summary:
                 save   8       (current)
                 save   87      (voltage)

    tran: time = 1.277 s     (2.55 %), step = 81.31 ms     (163 m%)
    tran: time = 3.882 s     (7.76 %), step = 367.6 ms     (735 m%)
    tran: time = 6.721 s     (13.4 %), step = 500 ms          (1 %)
    tran: time = 9.221 s     (18.4 %), step = 500 ms          (1 %)
    tran: time = 11.72 s     (23.4 %), step = 500 ms          (1 %)
    tran: time = 14.22 s     (28.4 %), step = 500 ms          (1 %)
    tran: time = 16.72 s     (33.4 %), step = 500 ms          (1 %)
    tran: time = 19.22 s     (38.4 %), step = 500 ms          (1 %)
    tran: time = 21.72 s     (43.4 %), step = 500 ms          (1 %)
    tran: time = 24.22 s     (48.4 %), step = 500 ms          (1 %)
    tran: time = 26.72 s     (53.4 %), step = 500 ms          (1 %)
    tran: time = 29.22 s     (58.4 %), step = 500 ms          (1 %)
    tran: time = 31.72 s     (63.4 %), step = 500 ms          (1 %)
    tran: time = 34.22 s     (68.4 %), step = 500 ms          (1 %)
    tran: time = 36.72 s     (73.4 %), step = 500 ms          (1 %)
    tran: time = 39.22 s     (78.4 %), step = 500 ms          (1 %)
    tran: time = 41.72 s     (83.4 %), step = 500 ms          (1 %)
    tran: time = 44.22 s     (88.4 %), step = 500 ms          (1 %)
    tran: time = 46.72 s     (93.4 %), step = 500 ms          (1 %)
    tran: time = 49.22 s     (98.4 %), step = 500 ms          (1 %)
Number of accepted tran steps =             744

Maximum value achieved for any signal of each quantity: 
V: V(vout_filt) = 3.3 V
I: I(V8:p) = 6.36 uA

~~~~~~~~~~~~~~~~~~~~~~~~~~~~~~~~~
Post-Transient Simulation Summary
~~~~~~~~~~~~~~~~~~~~~~~~~~~~~~~~~
   -   To further speed up simulation, consider
          add ++aps on command line
   -   Non-default settings that could significantly slow down simulation
          errpreset = conservative, default moderate
          reltol = 10e-06, default 100e-06 (conservative)
~~~~~~~~~~~~~~~~~~~~~~~~~~~~~~~~~


During simulation, the CPU load for active processors is :
         0 (24.3 %)      1 (100.0 %)     2 (100.0 %)     3 (77.0 %)
         4 (3.9 %)       5 (3.4 %)       6 (3.9 %)       7 (2.4 %)
         8 (1.5 %)       9 (1.5 %)      10 (2.0 %)      11 (3.4 %)
        12 (16.1 %)     13 (26.8 %)     14 (46.6 %)     15 (3.9 %)
        16 (4.3 %)      17 (29.1 %)     18 (25.1 %)     19 (52.6 %)
        20 (35.1 %)     21 (76.9 %)     22 (98.1 %)     23 (12.7 %)
        24 (93.8 %)     25 (3.9 %)      26 (3.9 %)      27 (8.3 %)
        28 (100.0 %)    29 (4.9 %)      30 (3.9 %)      31 (14.2 %)
        32 (14.6 %)     33 (5.9 %)      34 (20.3 %)     35 (3.4 %)
        36 (55.1 %)     37 (16.3 %)     38 (2.0 %)      39 (12.0 %)
        40 (13.2 %)     41 (43.5 %)     42 (4.9 %)      43 (51.7 %)
        44 (4.8 %)      45 (3.4 %)      46 (27.3 %)     47 (2.9 %)
        Total: 1265.1%
Initial condition solution time: CPU = 2.599 ms, elapsed = 2.60091 ms.
Intrinsic tran analysis time:    CPU = 447.217 ms, elapsed = 448.467 ms.
Total time required for tran analysis `tran': CPU = 452.221 ms, elapsed = 454.037 ms, util. = 99.6%.
Time accumulated: CPU = 1.53141 s, elapsed = 2.14862 s.
Peak resident memory used = 213 Mbytes.


Notice from spectre during transient analysis `tran', during Monte Carlo analysis `mc1'.
    34 warnings suppressed.

finalTimeOP: writing operating point information to rawfile.

Opening the PSF file ../psf/mc1_separate/001/finalTimeOP.info ...
modelParameter: writing model parameter values to rawfile.

Opening the PSF file ../psf/mc1_separate/001/modelParameter.info ...
element: writing instance parameter values to rawfile.

Opening the PSF file ../psf/mc1_separate/001/element.info ...
outputParameter: writing output parameter values to rawfile.

Opening the PSF file ../psf/mc1_separate/001/outputParameter.info ...
designParamVals: writing netlist parameters to rawfile.

Opening the PSFASCII file ../psf/mc1_separate/001/designParamVals.info ...
primitives: writing primitives to rawfile.

Opening the PSFASCII file ../psf/mc1_separate/001/primitives.info.primitives ...
subckts: writing subcircuits to rawfile.

Opening the PSFASCII file ../psf/mc1_separate/001/subckts.info.subckts ...
2   1.01% 

*****************************************************************************************
* 
* INFO: AMS_processOption = C35B4C3
* 
* INFO: Valid Modules  PIP VG5 HIRES
* 
*****************************************************************************************


Notice from spectre during Monte Carlo analysis `mc1'.
    V8: `period' has the unusually large value of 100 s.


***********************************************
Transient Analysis `tran': time = (0 s -> 50 s)
***********************************************

Opening the PSF file ../psf/mc1_separate/002/tran.tran.tran ...

Warning from spectre during check, during IC analysis, during transient analysis `tran', during Monte Carlo analysis `mc1'.
    WARNING (CMI-2943): Parameter checks have been ignored because the valid value for parameter 'trise' could not be found in 'C1'.
    WARNING (CMI-2943): Parameter checks have been ignored because the valid value for parameter 'trise' could not be found in 'I0.R2.CM'.
    WARNING (CMI-2943): Parameter checks have been ignored because the valid value for parameter 'trise' could not be found in 'I0.R2.CS1'.
    WARNING (CMI-2943): Parameter checks have been ignored because the valid value for parameter 'trise' could not be found in 'I0.R2.CS0'.
    WARNING (CMI-2943): Parameter checks have been ignored because the valid value for parameter 'trise' could not be found in 'I0.C3.C1'.
        Further occurrences of this warning will be suppressed.

Convergence achieved in 12 iterations.
DC simulation time: CPU = 2.454 ms, elapsed = 2.45404 ms.
Important parameter values:
    start = 0 s
    outputstart = 0 s
    stop = 50 s
    step = 50 ms
    maxstep = 500 ms
    ic = all
    useprevic = no
    skipdc = no
    reltol = 10e-06
    abstol(V) = 1 uV
    abstol(I) = 1 pA
    temp = -40 C
    tnom = 27 C
    tempeffects = all
    errpreset = conservative
    method = gear2only
    lteratio = 10
    relref = alllocal
    cmin = 0 F
    gmin = 1 pS
    rabsshort = 1 mOhm


Notice from spectre during transient analysis `tran', during Monte Carlo analysis `mc1'.
    Multithreading is disabled due to the size of the design being too small.


Output and IC/nodeset summary:
                 save   8       (current)
                 save   87      (voltage)

    tran: time = 1.25 s       (2.5 %), step = 85.2 ms      (170 m%)
    tran: time = 3.977 s     (7.95 %), step = 383.8 ms     (768 m%)
    tran: time = 6.373 s     (12.7 %), step = 500 ms          (1 %)
    tran: time = 8.873 s     (17.7 %), step = 500 ms          (1 %)
    tran: time = 11.37 s     (22.7 %), step = 500 ms          (1 %)
    tran: time = 13.87 s     (27.7 %), step = 500 ms          (1 %)
    tran: time = 16.37 s     (32.7 %), step = 500 ms          (1 %)
    tran: time = 18.87 s     (37.7 %), step = 500 ms          (1 %)
    tran: time = 21.37 s     (42.7 %), step = 500 ms          (1 %)
    tran: time = 23.87 s     (47.7 %), step = 500 ms          (1 %)
    tran: time = 26.37 s     (52.7 %), step = 500 ms          (1 %)
    tran: time = 28.87 s     (57.7 %), step = 500 ms          (1 %)
    tran: time = 31.37 s     (62.7 %), step = 500 ms          (1 %)
    tran: time = 33.87 s     (67.7 %), step = 500 ms          (1 %)
    tran: time = 36.37 s     (72.7 %), step = 500 ms          (1 %)
    tran: time = 38.87 s     (77.7 %), step = 500 ms          (1 %)
    tran: time = 41.37 s     (82.7 %), step = 500 ms          (1 %)
    tran: time = 43.87 s     (87.7 %), step = 500 ms          (1 %)
    tran: time = 46.37 s     (92.7 %), step = 500 ms          (1 %)
    tran: time = 48.87 s     (97.7 %), step = 500 ms          (1 %)
Number of accepted tran steps =             738

Maximum value achieved for any signal of each quantity: 
V: V(vout) = 3.3 V
I: I(V8:p) = 6.402 uA

~~~~~~~~~~~~~~~~~~~~~~~~~~~~~~~~~
Post-Transient Simulation Summary
~~~~~~~~~~~~~~~~~~~~~~~~~~~~~~~~~
   -   To further speed up simulation, consider
          add ++aps on command line
   -   Non-default settings that could significantly slow down simulation
          errpreset = conservative, default moderate
          reltol = 10e-06, default 100e-06 (conservative)
~~~~~~~~~~~~~~~~~~~~~~~~~~~~~~~~~


During simulation, the CPU load for active processors is :
         0 (20.4 %)      1 (100.0 %)     2 (100.0 %)     3 (80.5 %)
         4 (5.1 %)       5 (3.1 %)       6 (3.5 %)       7 (2.4 %)
         8 (2.0 %)       9 (1.2 %)      10 (2.4 %)      11 (2.8 %)
        12 (32.1 %)     13 (39.8 %)     14 (38.5 %)     15 (3.9 %)
        16 (4.7 %)      17 (24.8 %)     18 (21.0 %)     19 (43.4 %)
        20 (44.0 %)     21 (69.0 %)     22 (98.5 %)     23 (11.4 %)
        24 (92.2 %)     25 (3.9 %)      26 (3.9 %)      27 (9.1 %)
        28 (100.0 %)    29 (6.6 %)      30 (4.3 %)      31 (11.8 %)
        32 (16.3 %)     33 (5.1 %)      34 (20.5 %)     35 (3.1 %)
        36 (46.7 %)     37 (18.4 %)     38 (2.4 %)      39 (18.5 %)
        40 (30.5 %)     41 (36.2 %)     42 (5.1 %)      43 (60.8 %)
        44 (3.9 %)      45 (3.9 %)      46 (22.7 %)     47 (3.1 %)
        Total: 1283.4%
Initial condition solution time: CPU = 2.493 ms, elapsed = 2.4941 ms.
Intrinsic tran analysis time:    CPU = 454.853 ms, elapsed = 456.402 ms.
Total time required for tran analysis `tran': CPU = 459.824 ms, elapsed = 462.013 ms, util. = 99.5%.
Time accumulated: CPU = 2.03192 s, elapsed = 2.66251 s.
Peak resident memory used = 213 Mbytes.


Notice from spectre during transient analysis `tran', during Monte Carlo analysis `mc1'.
    34 warnings suppressed.

finalTimeOP: writing operating point information to rawfile.

Opening the PSF file ../psf/mc1_separate/002/finalTimeOP.info ...
modelParameter: writing model parameter values to rawfile.

Opening the PSF file ../psf/mc1_separate/002/modelParameter.info ...
element: writing instance parameter values to rawfile.

Opening the PSF file ../psf/mc1_separate/002/element.info ...
outputParameter: writing output parameter values to rawfile.

Opening the PSF file ../psf/mc1_separate/002/outputParameter.info ...
designParamVals: writing netlist parameters to rawfile.

Opening the PSFASCII file ../psf/mc1_separate/002/designParamVals.info ...
primitives: writing primitives to rawfile.

Opening the PSFASCII file ../psf/mc1_separate/002/primitives.info.primitives ...
subckts: writing subcircuits to rawfile.

Opening the PSFASCII file ../psf/mc1_separate/002/subckts.info.subckts ...
3   2.02% 

*****************************************************************************************
* 
* INFO: AMS_processOption = C35B4C3
* 
* INFO: Valid Modules  PIP VG5 HIRES
* 
*****************************************************************************************


Notice from spectre during Monte Carlo analysis `mc1'.
    V8: `period' has the unusually large value of 100 s.


***********************************************
Transient Analysis `tran': time = (0 s -> 50 s)
***********************************************

Opening the PSF file ../psf/mc1_separate/003/tran.tran.tran ...

Warning from spectre during check, during IC analysis, during transient analysis `tran', during Monte Carlo analysis `mc1'.
    WARNING (CMI-2943): Parameter checks have been ignored because the valid value for parameter 'trise' could not be found in 'C1'.
    WARNING (CMI-2943): Parameter checks have been ignored because the valid value for parameter 'trise' could not be found in 'I0.R2.CM'.
    WARNING (CMI-2943): Parameter checks have been ignored because the valid value for parameter 'trise' could not be found in 'I0.R2.CS1'.
    WARNING (CMI-2943): Parameter checks have been ignored because the valid value for parameter 'trise' could not be found in 'I0.R2.CS0'.
    WARNING (CMI-2943): Parameter checks have been ignored because the valid value for parameter 'trise' could not be found in 'I0.C3.C1'.
        Further occurrences of this warning will be suppressed.

Convergence achieved in 12 iterations.
DC simulation time: CPU = 2.418 ms, elapsed = 2.42496 ms.
Important parameter values:
    start = 0 s
    outputstart = 0 s
    stop = 50 s
    step = 50 ms
    maxstep = 500 ms
    ic = all
    useprevic = no
    skipdc = no
    reltol = 10e-06
    abstol(V) = 1 uV
    abstol(I) = 1 pA
    temp = -40 C
    tnom = 27 C
    tempeffects = all
    errpreset = conservative
    method = gear2only
    lteratio = 10
    relref = alllocal
    cmin = 0 F
    gmin = 1 pS
    rabsshort = 1 mOhm


Notice from spectre during transient analysis `tran', during Monte Carlo analysis `mc1'.
    Multithreading is disabled due to the size of the design being too small.


Output and IC/nodeset summary:
                 save   8       (current)
                 save   87      (voltage)

    tran: time = 1.279 s     (2.56 %), step = 111.2 ms     (222 m%)
    tran: time = 3.889 s     (7.78 %), step = 393.4 ms     (787 m%)
    tran: time = 6.304 s     (12.6 %), step = 500 ms          (1 %)
    tran: time = 8.804 s     (17.6 %), step = 500 ms          (1 %)
    tran: time = 11.3 s      (22.6 %), step = 500 ms          (1 %)
    tran: time = 13.8 s      (27.6 %), step = 500 ms          (1 %)
    tran: time = 16.3 s      (32.6 %), step = 500 ms          (1 %)
    tran: time = 18.8 s      (37.6 %), step = 500 ms          (1 %)
    tran: time = 21.3 s      (42.6 %), step = 500 ms          (1 %)
    tran: time = 23.8 s      (47.6 %), step = 500 ms          (1 %)
    tran: time = 26.3 s      (52.6 %), step = 500 ms          (1 %)
    tran: time = 28.8 s      (57.6 %), step = 500 ms          (1 %)
    tran: time = 31.3 s      (62.6 %), step = 500 ms          (1 %)
    tran: time = 33.8 s      (67.6 %), step = 500 ms          (1 %)
    tran: time = 36.3 s      (72.6 %), step = 500 ms          (1 %)
    tran: time = 38.8 s      (77.6 %), step = 500 ms          (1 %)
    tran: time = 41.3 s      (82.6 %), step = 500 ms          (1 %)
    tran: time = 43.8 s      (87.6 %), step = 500 ms          (1 %)
    tran: time = 46.3 s      (92.6 %), step = 500 ms          (1 %)
    tran: time = 48.8 s      (97.6 %), step = 500 ms          (1 %)
Number of accepted tran steps =             742

Maximum value achieved for any signal of each quantity: 
V: V(vout) = 3.3 V
I: I(V8:p) = 6.277 uA

~~~~~~~~~~~~~~~~~~~~~~~~~~~~~~~~~
Post-Transient Simulation Summary
~~~~~~~~~~~~~~~~~~~~~~~~~~~~~~~~~
   -   To further speed up simulation, consider
          add ++aps on command line
   -   Non-default settings that could significantly slow down simulation
          errpreset = conservative, default moderate
          reltol = 10e-06, default 100e-06 (conservative)
~~~~~~~~~~~~~~~~~~~~~~~~~~~~~~~~~


During simulation, the CPU load for active processors is :
         0 (33.1 %)      1 (100.0 %)     2 (100.0 %)     3 (68.0 %)
         4 (4.3 %)       5 (3.0 %)       6 (3.3 %)       7 (2.3 %)
         8 (2.0 %)      10 (2.6 %)      11 (3.0 %)      12 (34.7 %)
        13 (34.3 %)     14 (33.2 %)     15 (4.0 %)      16 (3.9 %)
        17 (21.2 %)     18 (25.7 %)     19 (37.4 %)     20 (38.8 %)
        21 (73.1 %)     22 (98.7 %)     23 (10.5 %)     24 (93.2 %)
        25 (4.6 %)      26 (3.9 %)      27 (7.9 %)      28 (100.0 %)
        29 (6.2 %)      30 (4.9 %)      31 (10.3 %)     32 (17.0 %)
        33 (4.6 %)      34 (19.2 %)     35 (3.9 %)      36 (42.9 %)
        37 (16.1 %)     38 (2.6 %)      39 (16.5 %)     40 (26.2 %)
        41 (30.6 %)     42 (8.6 %)      43 (63.3 %)     44 (12.1 %)
        45 (19.3 %)     46 (19.7 %)     47 (3.3 %)      
        Total: 1274.9%
Initial condition solution time: CPU = 2.472 ms, elapsed = 2.48098 ms.
Intrinsic tran analysis time:    CPU = 444.433 ms, elapsed = 445.723 ms.
Total time required for tran analysis `tran': CPU = 449.358 ms, elapsed = 451.252 ms, util. = 99.6%.
Time accumulated: CPU = 2.5207 s, elapsed = 3.16512 s.
Peak resident memory used = 213 Mbytes.


Notice from spectre during transient analysis `tran', during Monte Carlo analysis `mc1'.
    34 warnings suppressed.

finalTimeOP: writing operating point information to rawfile.

Opening the PSF file ../psf/mc1_separate/003/finalTimeOP.info ...
modelParameter: writing model parameter values to rawfile.

Opening the PSF file ../psf/mc1_separate/003/modelParameter.info ...
element: writing instance parameter values to rawfile.

Opening the PSF file ../psf/mc1_separate/003/element.info ...
outputParameter: writing output parameter values to rawfile.

Opening the PSF file ../psf/mc1_separate/003/outputParameter.info ...
designParamVals: writing netlist parameters to rawfile.

Opening the PSFASCII file ../psf/mc1_separate/003/designParamVals.info ...
primitives: writing primitives to rawfile.

Opening the PSFASCII file ../psf/mc1_separate/003/primitives.info.primitives ...
subckts: writing subcircuits to rawfile.

Opening the PSFASCII file ../psf/mc1_separate/003/subckts.info.subckts ...
4   3.03% 

*****************************************************************************************
* 
* INFO: AMS_processOption = C35B4C3
* 
* INFO: Valid Modules  PIP VG5 HIRES
* 
*****************************************************************************************


Notice from spectre during Monte Carlo analysis `mc1'.
    V8: `period' has the unusually large value of 100 s.


***********************************************
Transient Analysis `tran': time = (0 s -> 50 s)
***********************************************

Opening the PSF file ../psf/mc1_separate/004/tran.tran.tran ...

Warning from spectre during check, during IC analysis, during transient analysis `tran', during Monte Carlo analysis `mc1'.
    WARNING (CMI-2943): Parameter checks have been ignored because the valid value for parameter 'trise' could not be found in 'C1'.
    WARNING (CMI-2943): Parameter checks have been ignored because the valid value for parameter 'trise' could not be found in 'I0.R2.CM'.
    WARNING (CMI-2943): Parameter checks have been ignored because the valid value for parameter 'trise' could not be found in 'I0.R2.CS1'.
    WARNING (CMI-2943): Parameter checks have been ignored because the valid value for parameter 'trise' could not be found in 'I0.R2.CS0'.
    WARNING (CMI-2943): Parameter checks have been ignored because the valid value for parameter 'trise' could not be found in 'I0.C3.C1'.
        Further occurrences of this warning will be suppressed.

Convergence achieved in 12 iterations.
DC simulation time: CPU = 2.296 ms, elapsed = 2.29597 ms.
Important parameter values:
    start = 0 s
    outputstart = 0 s
    stop = 50 s
    step = 50 ms
    maxstep = 500 ms
    ic = all
    useprevic = no
    skipdc = no
    reltol = 10e-06
    abstol(V) = 1 uV
    abstol(I) = 1 pA
    temp = -40 C
    tnom = 27 C
    tempeffects = all
    errpreset = conservative
    method = gear2only
    lteratio = 10
    relref = alllocal
    cmin = 0 F
    gmin = 1 pS
    rabsshort = 1 mOhm


Notice from spectre during transient analysis `tran', during Monte Carlo analysis `mc1'.
    Multithreading is disabled due to the size of the design being too small.


Output and IC/nodeset summary:
                 save   8       (current)
                 save   87      (voltage)

    tran: time = 1.291 s     (2.58 %), step = 115.2 ms     (230 m%)
    tran: time = 3.99 s      (7.98 %), step = 404.6 ms     (809 m%)
    tran: time = 6.427 s     (12.9 %), step = 500 ms          (1 %)
    tran: time = 8.927 s     (17.9 %), step = 500 ms          (1 %)
    tran: time = 11.43 s     (22.9 %), step = 500 ms          (1 %)
    tran: time = 13.93 s     (27.9 %), step = 500 ms          (1 %)
    tran: time = 16.43 s     (32.9 %), step = 500 ms          (1 %)
    tran: time = 18.93 s     (37.9 %), step = 500 ms          (1 %)
    tran: time = 21.43 s     (42.9 %), step = 500 ms          (1 %)
    tran: time = 23.93 s     (47.9 %), step = 500 ms          (1 %)
    tran: time = 26.43 s     (52.9 %), step = 500 ms          (1 %)
    tran: time = 28.93 s     (57.9 %), step = 500 ms          (1 %)
    tran: time = 31.43 s     (62.9 %), step = 500 ms          (1 %)
    tran: time = 33.93 s     (67.9 %), step = 500 ms          (1 %)
    tran: time = 36.43 s     (72.9 %), step = 500 ms          (1 %)
    tran: time = 38.93 s     (77.9 %), step = 500 ms          (1 %)
    tran: time = 41.43 s     (82.9 %), step = 500 ms          (1 %)
    tran: time = 43.93 s     (87.9 %), step = 500 ms          (1 %)
    tran: time = 46.43 s     (92.9 %), step = 500 ms          (1 %)
    tran: time = 48.93 s     (97.9 %), step = 500 ms          (1 %)
Number of accepted tran steps =             745

Maximum value achieved for any signal of each quantity: 
V: V(vout) = 3.3 V
I: I(V8:p) = 6.601 uA

~~~~~~~~~~~~~~~~~~~~~~~~~~~~~~~~~
Post-Transient Simulation Summary
~~~~~~~~~~~~~~~~~~~~~~~~~~~~~~~~~
   -   To further speed up simulation, consider
          add ++aps on command line
   -   Non-default settings that could significantly slow down simulation
          errpreset = conservative, default moderate
          reltol = 10e-06, default 100e-06 (conservative)
~~~~~~~~~~~~~~~~~~~~~~~~~~~~~~~~~


During simulation, the CPU load for active processors is :
         0 (42.1 %)      1 (89.2 %)      2 (100.0 %)     3 (58.7 %)
         4 (3.7 %)       5 (2.8 %)       6 (3.7 %)       7 (2.0 %)
         8 (2.0 %)       9 (1.4 %)      10 (2.6 %)      11 (2.6 %)
        12 (31.2 %)     13 (29.9 %)     14 (29.0 %)     15 (3.7 %)
        16 (4.0 %)      17 (18.6 %)     18 (29.3 %)     19 (32.8 %)
        20 (34.1 %)     21 (76.7 %)     22 (98.9 %)     23 (22.0 %)
        24 (93.0 %)     25 (5.6 %)      26 (4.5 %)      27 (7.4 %)
        28 (100.0 %)    29 (5.9 %)      30 (4.8 %)      31 (9.9 %)
        32 (22.0 %)     33 (4.3 %)      34 (18.3 %)     35 (5.9 %)
        36 (37.4 %)     37 (14.1 %)     38 (2.5 %)      39 (14.7 %)
        40 (36.2 %)     41 (26.4 %)     42 (7.6 %)      43 (54.7 %)
        44 (24.2 %)     45 (30.3 %)     46 (16.9 %)     47 (2.8 %)
        Total: 1270.5%
Initial condition solution time: CPU = 2.333 ms, elapsed = 2.33483 ms.
Intrinsic tran analysis time:    CPU = 444.155 ms, elapsed = 445.823 ms.
Total time required for tran analysis `tran': CPU = 448.834 ms, elapsed = 451.063 ms, util. = 99.5%.
Time accumulated: CPU = 3.00932 s, elapsed = 3.66777 s.
Peak resident memory used = 214 Mbytes.


Notice from spectre during transient analysis `tran', during Monte Carlo analysis `mc1'.
    34 warnings suppressed.

finalTimeOP: writing operating point information to rawfile.

Opening the PSF file ../psf/mc1_separate/004/finalTimeOP.info ...
modelParameter: writing model parameter values to rawfile.

Opening the PSF file ../psf/mc1_separate/004/modelParameter.info ...
element: writing instance parameter values to rawfile.

Opening the PSF file ../psf/mc1_separate/004/element.info ...
outputParameter: writing output parameter values to rawfile.

Opening the PSF file ../psf/mc1_separate/004/outputParameter.info ...
designParamVals: writing netlist parameters to rawfile.

Opening the PSFASCII file ../psf/mc1_separate/004/designParamVals.info ...
primitives: writing primitives to rawfile.

Opening the PSFASCII file ../psf/mc1_separate/004/primitives.info.primitives ...
subckts: writing subcircuits to rawfile.

Opening the PSFASCII file ../psf/mc1_separate/004/subckts.info.subckts ...
    mc1: iteration = 4           (3.03 %), step = 1            (1.01 %)
5   4.04% 

*****************************************************************************************
* 
* INFO: AMS_processOption = C35B4C3
* 
* INFO: Valid Modules  PIP VG5 HIRES
* 
*****************************************************************************************


Notice from spectre during Monte Carlo analysis `mc1'.
    V8: `period' has the unusually large value of 100 s.


***********************************************
Transient Analysis `tran': time = (0 s -> 50 s)
***********************************************

Opening the PSF file ../psf/mc1_separate/005/tran.tran.tran ...

Warning from spectre during check, during IC analysis, during transient analysis `tran', during Monte Carlo analysis `mc1'.
    WARNING (CMI-2943): Parameter checks have been ignored because the valid value for parameter 'trise' could not be found in 'C1'.
    WARNING (CMI-2943): Parameter checks have been ignored because the valid value for parameter 'trise' could not be found in 'I0.R2.CM'.
    WARNING (CMI-2943): Parameter checks have been ignored because the valid value for parameter 'trise' could not be found in 'I0.R2.CS1'.
    WARNING (CMI-2943): Parameter checks have been ignored because the valid value for parameter 'trise' could not be found in 'I0.R2.CS0'.
    WARNING (CMI-2943): Parameter checks have been ignored because the valid value for parameter 'trise' could not be found in 'I0.C3.C1'.
        Further occurrences of this warning will be suppressed.

Convergence achieved in 12 iterations.
DC simulation time: CPU = 2.557 ms, elapsed = 2.55799 ms.
Important parameter values:
    start = 0 s
    outputstart = 0 s
    stop = 50 s
    step = 50 ms
    maxstep = 500 ms
    ic = all
    useprevic = no
    skipdc = no
    reltol = 10e-06
    abstol(V) = 1 uV
    abstol(I) = 1 pA
    temp = -40 C
    tnom = 27 C
    tempeffects = all
    errpreset = conservative
    method = gear2only
    lteratio = 10
    relref = alllocal
    cmin = 0 F
    gmin = 1 pS
    rabsshort = 1 mOhm


Notice from spectre during transient analysis `tran', during Monte Carlo analysis `mc1'.
    Multithreading is disabled due to the size of the design being too small.


Output and IC/nodeset summary:
                 save   8       (current)
                 save   87      (voltage)

    tran: time = 1.327 s     (2.65 %), step = 95.44 ms     (191 m%)
    tran: time = 3.957 s     (7.91 %), step = 383.4 ms     (767 m%)
    tran: time = 6.344 s     (12.7 %), step = 500 ms          (1 %)
    tran: time = 8.844 s     (17.7 %), step = 500 ms          (1 %)
    tran: time = 11.34 s     (22.7 %), step = 500 ms          (1 %)
    tran: time = 13.84 s     (27.7 %), step = 500 ms          (1 %)
    tran: time = 16.34 s     (32.7 %), step = 500 ms          (1 %)
    tran: time = 18.84 s     (37.7 %), step = 500 ms          (1 %)
    tran: time = 21.34 s     (42.7 %), step = 500 ms          (1 %)
    tran: time = 23.84 s     (47.7 %), step = 500 ms          (1 %)
    tran: time = 26.34 s     (52.7 %), step = 500 ms          (1 %)
    tran: time = 28.84 s     (57.7 %), step = 500 ms          (1 %)
    tran: time = 31.34 s     (62.7 %), step = 500 ms          (1 %)
    tran: time = 33.84 s     (67.7 %), step = 500 ms          (1 %)
    tran: time = 36.34 s     (72.7 %), step = 500 ms          (1 %)
    tran: time = 38.84 s     (77.7 %), step = 500 ms          (1 %)
    tran: time = 41.34 s     (82.7 %), step = 500 ms          (1 %)
    tran: time = 43.84 s     (87.7 %), step = 500 ms          (1 %)
    tran: time = 46.34 s     (92.7 %), step = 500 ms          (1 %)
    tran: time = 48.84 s     (97.7 %), step = 500 ms          (1 %)
Number of accepted tran steps =             736

Maximum value achieved for any signal of each quantity: 
V: V(vout) = 3.3 V
I: I(V8:p) = 6.489 uA

~~~~~~~~~~~~~~~~~~~~~~~~~~~~~~~~~
Post-Transient Simulation Summary
~~~~~~~~~~~~~~~~~~~~~~~~~~~~~~~~~
   -   To further speed up simulation, consider
          add ++aps on command line
   -   Non-default settings that could significantly slow down simulation
          errpreset = conservative, default moderate
          reltol = 10e-06, default 100e-06 (conservative)
~~~~~~~~~~~~~~~~~~~~~~~~~~~~~~~~~


During simulation, the CPU load for active processors is :
         0 (49.1 %)      1 (83.4 %)      2 (100.0 %)     3 (52.0 %)
         4 (3.7 %)       5 (2.5 %)       6 (3.5 %)       7 (1.7 %)
         8 (2.0 %)       9 (1.7 %)      10 (3.2 %)      11 (2.5 %)
        12 (29.3 %)     13 (26.6 %)     14 (25.9 %)     15 (3.2 %)
        16 (3.5 %)      17 (16.3 %)     18 (25.8 %)     19 (29.0 %)
        20 (30.0 %)     21 (79.2 %)     22 (99.0 %)     23 (31.1 %)
        24 (93.6 %)     25 (7.4 %)      26 (4.5 %)      27 (6.9 %)
        28 (100.0 %)    29 (5.7 %)      30 (5.4 %)      31 (9.2 %)
        32 (21.7 %)     33 (4.5 %)      34 (23.9 %)     35 (8.1 %)
        36 (33.3 %)     37 (12.6 %)     38 (2.5 %)      39 (13.0 %)
        40 (44.1 %)     41 (23.4 %)     42 (17.8 %)     43 (48.8 %)
        44 (21.9 %)     45 (38.2 %)     46 (15.4 %)     47 (2.7 %)
        Total: 1268.9%
Initial condition solution time: CPU = 2.606 ms, elapsed = 2.60711 ms.
Intrinsic tran analysis time:    CPU = 442.168 ms, elapsed = 443.413 ms.
Total time required for tran analysis `tran': CPU = 447.531 ms, elapsed = 449.354 ms, util. = 99.6%.
Time accumulated: CPU = 3.50189 s, elapsed = 4.17338 s.
Peak resident memory used = 214 Mbytes.


Notice from spectre during transient analysis `tran', during Monte Carlo analysis `mc1'.
    34 warnings suppressed.

finalTimeOP: writing operating point information to rawfile.

Opening the PSF file ../psf/mc1_separate/005/finalTimeOP.info ...
modelParameter: writing model parameter values to rawfile.

Opening the PSF file ../psf/mc1_separate/005/modelParameter.info ...
element: writing instance parameter values to rawfile.

Opening the PSF file ../psf/mc1_separate/005/element.info ...
outputParameter: writing output parameter values to rawfile.

Opening the PSF file ../psf/mc1_separate/005/outputParameter.info ...
designParamVals: writing netlist parameters to rawfile.

Opening the PSFASCII file ../psf/mc1_separate/005/designParamVals.info ...
primitives: writing primitives to rawfile.

Opening the PSFASCII file ../psf/mc1_separate/005/primitives.info.primitives ...
subckts: writing subcircuits to rawfile.

Opening the PSFASCII file ../psf/mc1_separate/005/subckts.info.subckts ...
    mc1: iteration = 5           (4.04 %), step = 1            (1.01 %)
6   5.05% 

*****************************************************************************************
* 
* INFO: AMS_processOption = C35B4C3
* 
* INFO: Valid Modules  PIP VG5 HIRES
* 
*****************************************************************************************


Notice from spectre during Monte Carlo analysis `mc1'.
    V8: `period' has the unusually large value of 100 s.


***********************************************
Transient Analysis `tran': time = (0 s -> 50 s)
***********************************************

Opening the PSF file ../psf/mc1_separate/006/tran.tran.tran ...

Warning from spectre during check, during IC analysis, during transient analysis `tran', during Monte Carlo analysis `mc1'.
    WARNING (CMI-2943): Parameter checks have been ignored because the valid value for parameter 'trise' could not be found in 'C1'.
    WARNING (CMI-2943): Parameter checks have been ignored because the valid value for parameter 'trise' could not be found in 'I0.R2.CM'.
    WARNING (CMI-2943): Parameter checks have been ignored because the valid value for parameter 'trise' could not be found in 'I0.R2.CS1'.
    WARNING (CMI-2943): Parameter checks have been ignored because the valid value for parameter 'trise' could not be found in 'I0.R2.CS0'.
    WARNING (CMI-2943): Parameter checks have been ignored because the valid value for parameter 'trise' could not be found in 'I0.C3.C1'.
        Further occurrences of this warning will be suppressed.

Convergence achieved in 12 iterations.
DC simulation time: CPU = 2.418 ms, elapsed = 2.41899 ms.
Important parameter values:
    start = 0 s
    outputstart = 0 s
    stop = 50 s
    step = 50 ms
    maxstep = 500 ms
    ic = all
    useprevic = no
    skipdc = no
    reltol = 10e-06
    abstol(V) = 1 uV
    abstol(I) = 1 pA
    temp = -40 C
    tnom = 27 C
    tempeffects = all
    errpreset = conservative
    method = gear2only
    lteratio = 10
    relref = alllocal
    cmin = 0 F
    gmin = 1 pS
    rabsshort = 1 mOhm


Notice from spectre during transient analysis `tran', during Monte Carlo analysis `mc1'.
    Multithreading is disabled due to the size of the design being too small.


Output and IC/nodeset summary:
                 save   8       (current)
                 save   87      (voltage)

    tran: time = 1.289 s     (2.58 %), step = 104.3 ms     (209 m%)
    tran: time = 4.156 s     (8.31 %), step = 408.5 ms     (817 m%)
    tran: time = 6.574 s     (13.1 %), step = 500 ms          (1 %)
    tran: time = 9.074 s     (18.1 %), step = 500 ms          (1 %)
    tran: time = 11.57 s     (23.1 %), step = 500 ms          (1 %)
    tran: time = 14.07 s     (28.1 %), step = 500 ms          (1 %)
    tran: time = 16.57 s     (33.1 %), step = 500 ms          (1 %)
    tran: time = 19.07 s     (38.1 %), step = 500 ms          (1 %)
    tran: time = 21.57 s     (43.1 %), step = 500 ms          (1 %)
    tran: time = 24.07 s     (48.1 %), step = 500 ms          (1 %)
    tran: time = 26.57 s     (53.1 %), step = 500 ms          (1 %)
    tran: time = 29.07 s     (58.1 %), step = 500 ms          (1 %)
    tran: time = 31.57 s     (63.1 %), step = 500 ms          (1 %)
    tran: time = 34.07 s     (68.1 %), step = 500 ms          (1 %)
    tran: time = 36.57 s     (73.1 %), step = 500 ms          (1 %)
    tran: time = 39.07 s     (78.1 %), step = 500 ms          (1 %)
    tran: time = 41.57 s     (83.1 %), step = 500 ms          (1 %)
    tran: time = 44.07 s     (88.1 %), step = 500 ms          (1 %)
    tran: time = 46.57 s     (93.1 %), step = 500 ms          (1 %)
    tran: time = 49.07 s     (98.1 %), step = 500 ms          (1 %)
Number of accepted tran steps =             741

Maximum value achieved for any signal of each quantity: 
V: V(vout) = 3.3 V
I: I(V8:p) = 6.529 uA

~~~~~~~~~~~~~~~~~~~~~~~~~~~~~~~~~
Post-Transient Simulation Summary
~~~~~~~~~~~~~~~~~~~~~~~~~~~~~~~~~
   -   To further speed up simulation, consider
          add ++aps on command line
   -   Non-default settings that could significantly slow down simulation
          errpreset = conservative, default moderate
          reltol = 10e-06, default 100e-06 (conservative)
~~~~~~~~~~~~~~~~~~~~~~~~~~~~~~~~~


During simulation, the CPU load for active processors is :
         0 (54.3 %)      1 (79.7 %)      2 (100.0 %)     3 (46.5 %)
         4 (3.7 %)       5 (2.7 %)       6 (3.7 %)       7 (2.0 %)
         8 (1.8 %)       9 (8.3 %)      10 (2.9 %)      11 (2.4 %)
        12 (36.1 %)     13 (24.4 %)     14 (23.5 %)     15 (2.9 %)
        16 (3.7 %)      17 (15.4 %)     18 (23.2 %)     19 (25.9 %)
        20 (27.0 %)     21 (81.3 %)     22 (99.1 %)     23 (32.2 %)
        24 (94.1 %)     25 (6.6 %)      26 (4.4 %)      27 (7.7 %)
        28 (100.0 %)    29 (5.8 %)      30 (5.1 %)      31 (8.9 %)
        32 (21.6 %)     33 (4.4 %)      34 (22.5 %)     35 (9.7 %)
        36 (30.1 %)     37 (12.6 %)     38 (2.4 %)      39 (12.0 %)
        40 (49.8 %)     41 (20.9 %)     42 (26.8 %)     43 (43.5 %)
        44 (19.6 %)     45 (44.5 %)     46 (14.3 %)     47 (2.4 %)
        Total: 1272.4%
Initial condition solution time: CPU = 2.458 ms, elapsed = 2.46 ms.
Intrinsic tran analysis time:    CPU = 445.217 ms, elapsed = 447.366 ms.
Total time required for tran analysis `tran': CPU = 450.144 ms, elapsed = 452.922 ms, util. = 99.4%.
Time accumulated: CPU = 3.99338 s, elapsed = 4.67921 s.
Peak resident memory used = 214 Mbytes.


Notice from spectre during transient analysis `tran', during Monte Carlo analysis `mc1'.
    34 warnings suppressed.

finalTimeOP: writing operating point information to rawfile.

Opening the PSF file ../psf/mc1_separate/006/finalTimeOP.info ...
modelParameter: writing model parameter values to rawfile.

Opening the PSF file ../psf/mc1_separate/006/modelParameter.info ...
element: writing instance parameter values to rawfile.

Opening the PSF file ../psf/mc1_separate/006/element.info ...
outputParameter: writing output parameter values to rawfile.

Opening the PSF file ../psf/mc1_separate/006/outputParameter.info ...
designParamVals: writing netlist parameters to rawfile.

Opening the PSFASCII file ../psf/mc1_separate/006/designParamVals.info ...
primitives: writing primitives to rawfile.

Opening the PSFASCII file ../psf/mc1_separate/006/primitives.info.primitives ...
subckts: writing subcircuits to rawfile.

Opening the PSFASCII file ../psf/mc1_separate/006/subckts.info.subckts ...
    mc1: iteration = 6           (5.05 %), step = 1            (1.01 %)
7   6.06% 

*****************************************************************************************
* 
* INFO: AMS_processOption = C35B4C3
* 
* INFO: Valid Modules  PIP VG5 HIRES
* 
*****************************************************************************************


Notice from spectre during Monte Carlo analysis `mc1'.
    V8: `period' has the unusually large value of 100 s.


***********************************************
Transient Analysis `tran': time = (0 s -> 50 s)
***********************************************

Opening the PSF file ../psf/mc1_separate/007/tran.tran.tran ...

Warning from spectre during check, during IC analysis, during transient analysis `tran', during Monte Carlo analysis `mc1'.
    WARNING (CMI-2943): Parameter checks have been ignored because the valid value for parameter 'trise' could not be found in 'C1'.
    WARNING (CMI-2943): Parameter checks have been ignored because the valid value for parameter 'trise' could not be found in 'I0.R2.CM'.
    WARNING (CMI-2943): Parameter checks have been ignored because the valid value for parameter 'trise' could not be found in 'I0.R2.CS1'.
    WARNING (CMI-2943): Parameter checks have been ignored because the valid value for parameter 'trise' could not be found in 'I0.R2.CS0'.
    WARNING (CMI-2943): Parameter checks have been ignored because the valid value for parameter 'trise' could not be found in 'I0.C3.C1'.
        Further occurrences of this warning will be suppressed.

Convergence achieved in 12 iterations.
DC simulation time: CPU = 2.457 ms, elapsed = 2.47002 ms.
Important parameter values:
    start = 0 s
    outputstart = 0 s
    stop = 50 s
    step = 50 ms
    maxstep = 500 ms
    ic = all
    useprevic = no
    skipdc = no
    reltol = 10e-06
    abstol(V) = 1 uV
    abstol(I) = 1 pA
    temp = -40 C
    tnom = 27 C
    tempeffects = all
    errpreset = conservative
    method = gear2only
    lteratio = 10
    relref = alllocal
    cmin = 0 F
    gmin = 1 pS
    rabsshort = 1 mOhm


Notice from spectre during transient analysis `tran', during Monte Carlo analysis `mc1'.
    Multithreading is disabled due to the size of the design being too small.


Output and IC/nodeset summary:
                 save   8       (current)
                 save   87      (voltage)

    tran: time = 1.341 s     (2.68 %), step = 101.3 ms     (203 m%)
    tran: time = 4.13 s      (8.26 %), step = 405 ms       (810 m%)
    tran: time = 6.57 s      (13.1 %), step = 500 ms          (1 %)
    tran: time = 9.07 s      (18.1 %), step = 500 ms          (1 %)
    tran: time = 11.57 s     (23.1 %), step = 500 ms          (1 %)
    tran: time = 14.07 s     (28.1 %), step = 500 ms          (1 %)
    tran: time = 16.57 s     (33.1 %), step = 500 ms          (1 %)
    tran: time = 19.07 s     (38.1 %), step = 500 ms          (1 %)
    tran: time = 21.57 s     (43.1 %), step = 500 ms          (1 %)
    tran: time = 24.07 s     (48.1 %), step = 500 ms          (1 %)
    tran: time = 26.57 s     (53.1 %), step = 500 ms          (1 %)
    tran: time = 29.07 s     (58.1 %), step = 500 ms          (1 %)
    tran: time = 31.57 s     (63.1 %), step = 500 ms          (1 %)
    tran: time = 34.07 s     (68.1 %), step = 500 ms          (1 %)
    tran: time = 36.57 s     (73.1 %), step = 500 ms          (1 %)
    tran: time = 39.07 s     (78.1 %), step = 500 ms          (1 %)
    tran: time = 41.57 s     (83.1 %), step = 500 ms          (1 %)
    tran: time = 44.07 s     (88.1 %), step = 500 ms          (1 %)
    tran: time = 46.57 s     (93.1 %), step = 500 ms          (1 %)
    tran: time = 49.07 s     (98.1 %), step = 500 ms          (1 %)
Number of accepted tran steps =             741

Maximum value achieved for any signal of each quantity: 
V: V(S<0>) = 3.3 V
I: I(V8:p) = 6.432 uA

~~~~~~~~~~~~~~~~~~~~~~~~~~~~~~~~~
Post-Transient Simulation Summary
~~~~~~~~~~~~~~~~~~~~~~~~~~~~~~~~~
   -   To further speed up simulation, consider
          add ++aps on command line
   -   Non-default settings that could significantly slow down simulation
          errpreset = conservative, default moderate
          reltol = 10e-06, default 100e-06 (conservative)
~~~~~~~~~~~~~~~~~~~~~~~~~~~~~~~~~


During simulation, the CPU load for active processors is :
         0 (58.5 %)      1 (72.4 %)      2 (100.0 %)     3 (42.1 %)
         4 (3.4 %)       5 (2.8 %)       6 (3.4 %)       7 (1.8 %)
         8 (2.0 %)       9 (9.9 %)      10 (4.2 %)      11 (2.6 %)
        12 (38.4 %)     13 (22.9 %)     14 (21.3 %)     15 (2.8 %)
        16 (4.0 %)      17 (14.1 %)     18 (21.0 %)     19 (23.9 %)
        20 (31.8 %)     21 (77.1 %)     22 (99.2 %)     23 (33.5 %)
        24 (87.4 %)     25 (6.3 %)      26 (4.0 %)      27 (7.1 %)
        28 (100.0 %)    29 (6.4 %)      30 (4.8 %)      31 (10.2 %)
        32 (21.3 %)     33 (4.8 %)      34 (20.9 %)     35 (8.9 %)
        36 (27.6 %)     37 (12.0 %)     38 (4.0 %)      39 (11.0 %)
        40 (54.6 %)     41 (19.0 %)     42 (32.8 %)     43 (39.6 %)
        44 (18.2 %)     45 (41.4 %)     46 (22.3 %)     47 (3.2 %)
        Total: 1260.7%
Initial condition solution time: CPU = 2.495 ms, elapsed = 2.50888 ms.
Intrinsic tran analysis time:    CPU = 445.206 ms, elapsed = 447.246 ms.
Total time required for tran analysis `tran': CPU = 450.107 ms, elapsed = 452.836 ms, util. = 99.4%.
Time accumulated: CPU = 4.48382 s, elapsed = 5.18343 s.
Peak resident memory used = 214 Mbytes.


Notice from spectre during transient analysis `tran', during Monte Carlo analysis `mc1'.
    34 warnings suppressed.

finalTimeOP: writing operating point information to rawfile.

Opening the PSF file ../psf/mc1_separate/007/finalTimeOP.info ...
modelParameter: writing model parameter values to rawfile.

Opening the PSF file ../psf/mc1_separate/007/modelParameter.info ...
element: writing instance parameter values to rawfile.

Opening the PSF file ../psf/mc1_separate/007/element.info ...
outputParameter: writing output parameter values to rawfile.

Opening the PSF file ../psf/mc1_separate/007/outputParameter.info ...
designParamVals: writing netlist parameters to rawfile.

Opening the PSFASCII file ../psf/mc1_separate/007/designParamVals.info ...
primitives: writing primitives to rawfile.

Opening the PSFASCII file ../psf/mc1_separate/007/primitives.info.primitives ...
subckts: writing subcircuits to rawfile.

Opening the PSFASCII file ../psf/mc1_separate/007/subckts.info.subckts ...
    mc1: iteration = 7           (6.06 %), step = 1            (1.01 %)
8   7.07% 

*****************************************************************************************
* 
* INFO: AMS_processOption = C35B4C3
* 
* INFO: Valid Modules  PIP VG5 HIRES
* 
*****************************************************************************************


Notice from spectre during Monte Carlo analysis `mc1'.
    V8: `period' has the unusually large value of 100 s.


***********************************************
Transient Analysis `tran': time = (0 s -> 50 s)
***********************************************

Opening the PSF file ../psf/mc1_separate/008/tran.tran.tran ...

Warning from spectre during check, during IC analysis, during transient analysis `tran', during Monte Carlo analysis `mc1'.
    WARNING (CMI-2943): Parameter checks have been ignored because the valid value for parameter 'trise' could not be found in 'C1'.
    WARNING (CMI-2943): Parameter checks have been ignored because the valid value for parameter 'trise' could not be found in 'I0.R2.CM'.
    WARNING (CMI-2943): Parameter checks have been ignored because the valid value for parameter 'trise' could not be found in 'I0.R2.CS1'.
    WARNING (CMI-2943): Parameter checks have been ignored because the valid value for parameter 'trise' could not be found in 'I0.R2.CS0'.
    WARNING (CMI-2943): Parameter checks have been ignored because the valid value for parameter 'trise' could not be found in 'I0.C3.C1'.
        Further occurrences of this warning will be suppressed.

Convergence achieved in 12 iterations.
DC simulation time: CPU = 2.449 ms, elapsed = 2.44999 ms.
Important parameter values:
    start = 0 s
    outputstart = 0 s
    stop = 50 s
    step = 50 ms
    maxstep = 500 ms
    ic = all
    useprevic = no
    skipdc = no
    reltol = 10e-06
    abstol(V) = 1 uV
    abstol(I) = 1 pA
    temp = -40 C
    tnom = 27 C
    tempeffects = all
    errpreset = conservative
    method = gear2only
    lteratio = 10
    relref = alllocal
    cmin = 0 F
    gmin = 1 pS
    rabsshort = 1 mOhm


Notice from spectre during transient analysis `tran', during Monte Carlo analysis `mc1'.
    Multithreading is disabled due to the size of the design being too small.


Output and IC/nodeset summary:
                 save   8       (current)
                 save   87      (voltage)

    tran: time = 1.27 s      (2.54 %), step = 88.5 ms      (177 m%)
    tran: time = 4.102 s      (8.2 %), step = 397.7 ms     (795 m%)
    tran: time = 6.523 s       (13 %), step = 500 ms          (1 %)
    tran: time = 9.023 s       (18 %), step = 500 ms          (1 %)
    tran: time = 11.52 s       (23 %), step = 500 ms          (1 %)
    tran: time = 14.02 s       (28 %), step = 500 ms          (1 %)
    tran: time = 16.52 s       (33 %), step = 500 ms          (1 %)
    tran: time = 19.02 s       (38 %), step = 500 ms          (1 %)
    tran: time = 21.52 s       (43 %), step = 500 ms          (1 %)
    tran: time = 24.02 s       (48 %), step = 500 ms          (1 %)
    tran: time = 26.52 s       (53 %), step = 500 ms          (1 %)
    tran: time = 29.02 s       (58 %), step = 500 ms          (1 %)
    tran: time = 31.52 s       (63 %), step = 500 ms          (1 %)
    tran: time = 34.02 s       (68 %), step = 500 ms          (1 %)
    tran: time = 36.52 s       (73 %), step = 500 ms          (1 %)
    tran: time = 39.02 s       (78 %), step = 500 ms          (1 %)
    tran: time = 41.52 s       (83 %), step = 500 ms          (1 %)
    tran: time = 44.02 s       (88 %), step = 500 ms          (1 %)
    tran: time = 46.52 s       (93 %), step = 500 ms          (1 %)
    tran: time = 49.02 s       (98 %), step = 500 ms          (1 %)
Number of accepted tran steps =             740

Maximum value achieved for any signal of each quantity: 
V: V(vout) = 3.3 V
I: I(V8:p) = 6.471 uA

~~~~~~~~~~~~~~~~~~~~~~~~~~~~~~~~~
Post-Transient Simulation Summary
~~~~~~~~~~~~~~~~~~~~~~~~~~~~~~~~~
   -   To further speed up simulation, consider
          add ++aps on command line
   -   Non-default settings that could significantly slow down simulation
          errpreset = conservative, default moderate
          reltol = 10e-06, default 100e-06 (conservative)
~~~~~~~~~~~~~~~~~~~~~~~~~~~~~~~~~


During simulation, the CPU load for active processors is :
         0 (62.1 %)      1 (66.5 %)      2 (100.0 %)     3 (44.7 %)
         4 (3.3 %)       5 (2.9 %)       6 (4.0 %)       7 (4.2 %)
         8 (2.0 %)       9 (9.4 %)      10 (6.7 %)      11 (2.7 %)
        12 (37.0 %)     13 (21.2 %)     14 (19.6 %)     15 (2.9 %)
        16 (4.0 %)      17 (12.8 %)     18 (19.3 %)     19 (22.0 %)
        20 (37.8 %)     21 (70.4 %)     22 (99.3 %)     23 (38.0 %)
        24 (80.1 %)     25 (6.5 %)      26 (4.2 %)      27 (7.2 %)
        28 (100.0 %)    29 (6.0 %)      30 (4.7 %)      31 (10.2 %)
        32 (21.0 %)     33 (4.5 %)      34 (19.2 %)     35 (9.0 %)
        36 (25.5 %)     37 (11.3 %)     38 (3.8 %)      39 (10.1 %)
        40 (58.3 %)     41 (17.4 %)     42 (30.1 %)     43 (36.1 %)
        44 (16.8 %)     45 (46.2 %)     46 (28.7 %)     47 (3.1 %)
        Total: 1252.7%
Initial condition solution time: CPU = 2.491 ms, elapsed = 2.49314 ms.
Intrinsic tran analysis time:    CPU = 441.968 ms, elapsed = 443.574 ms.
Total time required for tran analysis `tran': CPU = 447.197 ms, elapsed = 449.458 ms, util. = 99.5%.
Time accumulated: CPU = 4.97142 s, elapsed = 5.6843 s.
Peak resident memory used = 214 Mbytes.


Notice from spectre during transient analysis `tran', during Monte Carlo analysis `mc1'.
    34 warnings suppressed.

finalTimeOP: writing operating point information to rawfile.

Opening the PSF file ../psf/mc1_separate/008/finalTimeOP.info ...
modelParameter: writing model parameter values to rawfile.

Opening the PSF file ../psf/mc1_separate/008/modelParameter.info ...
element: writing instance parameter values to rawfile.

Opening the PSF file ../psf/mc1_separate/008/element.info ...
outputParameter: writing output parameter values to rawfile.

Opening the PSF file ../psf/mc1_separate/008/outputParameter.info ...
designParamVals: writing netlist parameters to rawfile.

Opening the PSFASCII file ../psf/mc1_separate/008/designParamVals.info ...
primitives: writing primitives to rawfile.

Opening the PSFASCII file ../psf/mc1_separate/008/primitives.info.primitives ...
subckts: writing subcircuits to rawfile.

Opening the PSFASCII file ../psf/mc1_separate/008/subckts.info.subckts ...
    mc1: iteration = 8           (7.07 %), step = 1            (1.01 %)
9   8.08% 

*****************************************************************************************
* 
* INFO: AMS_processOption = C35B4C3
* 
* INFO: Valid Modules  PIP VG5 HIRES
* 
*****************************************************************************************


Notice from spectre during Monte Carlo analysis `mc1'.
    V8: `period' has the unusually large value of 100 s.


***********************************************
Transient Analysis `tran': time = (0 s -> 50 s)
***********************************************

Opening the PSF file ../psf/mc1_separate/009/tran.tran.tran ...

Warning from spectre during check, during IC analysis, during transient analysis `tran', during Monte Carlo analysis `mc1'.
    WARNING (CMI-2943): Parameter checks have been ignored because the valid value for parameter 'trise' could not be found in 'C1'.
    WARNING (CMI-2943): Parameter checks have been ignored because the valid value for parameter 'trise' could not be found in 'I0.R2.CM'.
    WARNING (CMI-2943): Parameter checks have been ignored because the valid value for parameter 'trise' could not be found in 'I0.R2.CS1'.
    WARNING (CMI-2943): Parameter checks have been ignored because the valid value for parameter 'trise' could not be found in 'I0.R2.CS0'.
    WARNING (CMI-2943): Parameter checks have been ignored because the valid value for parameter 'trise' could not be found in 'I0.C3.C1'.
        Further occurrences of this warning will be suppressed.

Convergence achieved in 12 iterations.
DC simulation time: CPU = 2.36 ms, elapsed = 2.35987 ms.
Important parameter values:
    start = 0 s
    outputstart = 0 s
    stop = 50 s
    step = 50 ms
    maxstep = 500 ms
    ic = all
    useprevic = no
    skipdc = no
    reltol = 10e-06
    abstol(V) = 1 uV
    abstol(I) = 1 pA
    temp = -40 C
    tnom = 27 C
    tempeffects = all
    errpreset = conservative
    method = gear2only
    lteratio = 10
    relref = alllocal
    cmin = 0 F
    gmin = 1 pS
    rabsshort = 1 mOhm


Notice from spectre during transient analysis `tran', during Monte Carlo analysis `mc1'.
    Multithreading is disabled due to the size of the design being too small.


Output and IC/nodeset summary:
                 save   8       (current)
                 save   87      (voltage)

    tran: time = 1.255 s     (2.51 %), step = 69.01 ms     (138 m%)
    tran: time = 3.811 s     (7.62 %), step = 350.9 ms     (702 m%)
    tran: time = 6.61 s      (13.2 %), step = 500 ms          (1 %)
    tran: time = 9.11 s      (18.2 %), step = 500 ms          (1 %)
    tran: time = 11.61 s     (23.2 %), step = 500 ms          (1 %)
    tran: time = 14.11 s     (28.2 %), step = 500 ms          (1 %)
    tran: time = 16.61 s     (33.2 %), step = 500 ms          (1 %)
    tran: time = 19.11 s     (38.2 %), step = 500 ms          (1 %)
    tran: time = 21.61 s     (43.2 %), step = 500 ms          (1 %)
    tran: time = 24.11 s     (48.2 %), step = 500 ms          (1 %)
    tran: time = 26.61 s     (53.2 %), step = 500 ms          (1 %)
    tran: time = 29.11 s     (58.2 %), step = 500 ms          (1 %)
    tran: time = 31.61 s     (63.2 %), step = 500 ms          (1 %)
    tran: time = 34.11 s     (68.2 %), step = 500 ms          (1 %)
    tran: time = 36.61 s     (73.2 %), step = 500 ms          (1 %)
    tran: time = 39.11 s     (78.2 %), step = 500 ms          (1 %)
    tran: time = 41.61 s     (83.2 %), step = 500 ms          (1 %)
    tran: time = 44.11 s     (88.2 %), step = 500 ms          (1 %)
    tran: time = 46.61 s     (93.2 %), step = 500 ms          (1 %)
    tran: time = 49.11 s     (98.2 %), step = 500 ms          (1 %)
Number of accepted tran steps =             744

Maximum value achieved for any signal of each quantity: 
V: V(vout_filt) = 3.3 V
I: I(V8:p) = 6.284 uA

~~~~~~~~~~~~~~~~~~~~~~~~~~~~~~~~~
Post-Transient Simulation Summary
~~~~~~~~~~~~~~~~~~~~~~~~~~~~~~~~~
   -   To further speed up simulation, consider
          add ++aps on command line
   -   Non-default settings that could significantly slow down simulation
          errpreset = conservative, default moderate
          reltol = 10e-06, default 100e-06 (conservative)
~~~~~~~~~~~~~~~~~~~~~~~~~~~~~~~~~


During simulation, the CPU load for active processors is :
         0 (64.9 %)      1 (61.5 %)      2 (100.0 %)     3 (45.5 %)
         4 (3.8 %)       5 (2.8 %)       6 (3.8 %)       7 (4.1 %)
         8 (2.2 %)       9 (9.0 %)      10 (14.3 %)     11 (3.0 %)
        12 (35.7 %)     13 (20.1 %)     14 (18.7 %)     15 (2.8 %)
        16 (3.8 %)      17 (12.3 %)     18 (17.9 %)     19 (20.3 %)
        20 (42.4 %)     21 (65.0 %)     22 (99.3 %)     23 (43.1 %)
        24 (77.4 %)     25 (12.3 %)     26 (4.8 %)      27 (6.8 %)
        28 (99.5 %)     29 (6.2 %)      30 (4.7 %)      31 (9.7 %)
        32 (24.0 %)     33 (4.5 %)      34 (18.2 %)     35 (10.1 %)
        36 (23.6 %)     37 (11.0 %)     38 (11.9 %)     39 (9.3 %)
        40 (61.4 %)     41 (16.1 %)     42 (27.7 %)     43 (33.2 %)
        44 (15.4 %)     45 (42.4 %)     46 (34.4 %)     47 (3.6 %)
        Total: 1264.7%
Initial condition solution time: CPU = 2.401 ms, elapsed = 2.40302 ms.
Intrinsic tran analysis time:    CPU = 444.549 ms, elapsed = 445.957 ms.
Total time required for tran analysis `tran': CPU = 449.387 ms, elapsed = 451.415 ms, util. = 99.6%.
Time accumulated: CPU = 5.46121 s, elapsed = 6.1869 s.
Peak resident memory used = 214 Mbytes.


Notice from spectre during transient analysis `tran', during Monte Carlo analysis `mc1'.
    34 warnings suppressed.

finalTimeOP: writing operating point information to rawfile.

Opening the PSF file ../psf/mc1_separate/009/finalTimeOP.info ...
modelParameter: writing model parameter values to rawfile.

Opening the PSF file ../psf/mc1_separate/009/modelParameter.info ...
element: writing instance parameter values to rawfile.

Opening the PSF file ../psf/mc1_separate/009/element.info ...
outputParameter: writing output parameter values to rawfile.

Opening the PSF file ../psf/mc1_separate/009/outputParameter.info ...
designParamVals: writing netlist parameters to rawfile.

Opening the PSFASCII file ../psf/mc1_separate/009/designParamVals.info ...
primitives: writing primitives to rawfile.

Opening the PSFASCII file ../psf/mc1_separate/009/primitives.info.primitives ...
subckts: writing subcircuits to rawfile.

Opening the PSFASCII file ../psf/mc1_separate/009/subckts.info.subckts ...
    mc1: iteration = 9           (8.08 %), step = 1            (1.01 %)
10   9.09% 

*****************************************************************************************
* 
* INFO: AMS_processOption = C35B4C3
* 
* INFO: Valid Modules  PIP VG5 HIRES
* 
*****************************************************************************************


Notice from spectre during Monte Carlo analysis `mc1'.
    V8: `period' has the unusually large value of 100 s.


***********************************************
Transient Analysis `tran': time = (0 s -> 50 s)
***********************************************

Opening the PSF file ../psf/mc1_separate/010/tran.tran.tran ...

Warning from spectre during check, during IC analysis, during transient analysis `tran', during Monte Carlo analysis `mc1'.
    WARNING (CMI-2943): Parameter checks have been ignored because the valid value for parameter 'trise' could not be found in 'C1'.
    WARNING (CMI-2943): Parameter checks have been ignored because the valid value for parameter 'trise' could not be found in 'I0.R2.CM'.
    WARNING (CMI-2943): Parameter checks have been ignored because the valid value for parameter 'trise' could not be found in 'I0.R2.CS1'.
    WARNING (CMI-2943): Parameter checks have been ignored because the valid value for parameter 'trise' could not be found in 'I0.R2.CS0'.
    WARNING (CMI-2943): Parameter checks have been ignored because the valid value for parameter 'trise' could not be found in 'I0.C3.C1'.
        Further occurrences of this warning will be suppressed.

Convergence achieved in 12 iterations.
DC simulation time: CPU = 2.495 ms, elapsed = 2.496 ms.
Important parameter values:
    start = 0 s
    outputstart = 0 s
    stop = 50 s
    step = 50 ms
    maxstep = 500 ms
    ic = all
    useprevic = no
    skipdc = no
    reltol = 10e-06
    abstol(V) = 1 uV
    abstol(I) = 1 pA
    temp = -40 C
    tnom = 27 C
    tempeffects = all
    errpreset = conservative
    method = gear2only
    lteratio = 10
    relref = alllocal
    cmin = 0 F
    gmin = 1 pS
    rabsshort = 1 mOhm


Notice from spectre during transient analysis `tran', during Monte Carlo analysis `mc1'.
    Multithreading is disabled due to the size of the design being too small.


Output and IC/nodeset summary:
                 save   8       (current)
                 save   87      (voltage)

    tran: time = 1.346 s     (2.69 %), step = 114.6 ms     (229 m%)
    tran: time = 4.037 s     (8.07 %), step = 405.7 ms     (811 m%)
    tran: time = 6.478 s       (13 %), step = 500 ms          (1 %)
    tran: time = 8.978 s       (18 %), step = 500 ms          (1 %)
    tran: time = 11.48 s       (23 %), step = 500 ms          (1 %)
    tran: time = 13.98 s       (28 %), step = 500 ms          (1 %)
    tran: time = 16.48 s       (33 %), step = 500 ms          (1 %)
    tran: time = 18.98 s       (38 %), step = 500 ms          (1 %)
    tran: time = 21.48 s       (43 %), step = 500 ms          (1 %)
    tran: time = 23.98 s       (48 %), step = 500 ms          (1 %)
    tran: time = 26.48 s       (53 %), step = 500 ms          (1 %)
    tran: time = 28.98 s       (58 %), step = 500 ms          (1 %)
    tran: time = 31.48 s       (63 %), step = 500 ms          (1 %)
[...]


***********************************************
Transient Analysis `tran': time = (0 s -> 50 s)
***********************************************

Opening the PSF file ../psf/mc1_separate/098/tran.tran.tran ...

Warning from spectre during check, during IC analysis, during transient analysis `tran', during Monte Carlo analysis `mc1'.
    WARNING (CMI-2943): Parameter checks have been ignored because the valid value for parameter 'trise' could not be found in 'C1'.
    WARNING (CMI-2943): Parameter checks have been ignored because the valid value for parameter 'trise' could not be found in 'I0.R2.CM'.
    WARNING (CMI-2943): Parameter checks have been ignored because the valid value for parameter 'trise' could not be found in 'I0.R2.CS1'.
    WARNING (CMI-2943): Parameter checks have been ignored because the valid value for parameter 'trise' could not be found in 'I0.R2.CS0'.
    WARNING (CMI-2943): Parameter checks have been ignored because the valid value for parameter 'trise' could not be found in 'I0.C3.C1'.
        Further occurrences of this warning will be suppressed.

Convergence achieved in 12 iterations.
DC simulation time: CPU = 2.509 ms, elapsed = 2.51007 ms.
Important parameter values:
    start = 0 s
    outputstart = 0 s
    stop = 50 s
    step = 50 ms
    maxstep = 500 ms
    ic = all
    useprevic = no
    skipdc = no
    reltol = 10e-06
    abstol(V) = 1 uV
    abstol(I) = 1 pA
    temp = -40 C
    tnom = 27 C
    tempeffects = all
    errpreset = conservative
    method = gear2only
    lteratio = 10
    relref = alllocal
    cmin = 0 F
    gmin = 1 pS
    rabsshort = 1 mOhm


Notice from spectre during transient analysis `tran', during Monte Carlo analysis `mc1'.
    Multithreading is disabled due to the size of the design being too small.


Output and IC/nodeset summary:
                 save   8       (current)
                 save   87      (voltage)

    tran: time = 1.303 s     (2.61 %), step = 98.49 ms     (197 m%)
    tran: time = 4.022 s     (8.04 %), step = 393.5 ms     (787 m%)
    tran: time = 6.433 s     (12.9 %), step = 500 ms          (1 %)
    tran: time = 8.933 s     (17.9 %), step = 500 ms          (1 %)
    tran: time = 11.43 s     (22.9 %), step = 500 ms          (1 %)
    tran: time = 13.93 s     (27.9 %), step = 500 ms          (1 %)
    tran: time = 16.43 s     (32.9 %), step = 500 ms          (1 %)
    tran: time = 18.93 s     (37.9 %), step = 500 ms          (1 %)
    tran: time = 21.43 s     (42.9 %), step = 500 ms          (1 %)
    tran: time = 23.93 s     (47.9 %), step = 500 ms          (1 %)
    tran: time = 26.43 s     (52.9 %), step = 500 ms          (1 %)
    tran: time = 28.93 s     (57.9 %), step = 500 ms          (1 %)
    tran: time = 31.43 s     (62.9 %), step = 500 ms          (1 %)
    tran: time = 33.93 s     (67.9 %), step = 500 ms          (1 %)
    tran: time = 36.43 s     (72.9 %), step = 500 ms          (1 %)
    tran: time = 38.93 s     (77.9 %), step = 500 ms          (1 %)
    tran: time = 41.43 s     (82.9 %), step = 500 ms          (1 %)
    tran: time = 43.93 s     (87.9 %), step = 500 ms          (1 %)
    tran: time = 46.43 s     (92.9 %), step = 500 ms          (1 %)
    tran: time = 48.93 s     (97.9 %), step = 500 ms          (1 %)
Number of accepted tran steps =             747

Maximum value achieved for any signal of each quantity: 
V: V(S<0>) = 3.3 V
I: I(V8:p) = 6.311 uA

~~~~~~~~~~~~~~~~~~~~~~~~~~~~~~~~~
Post-Transient Simulation Summary
~~~~~~~~~~~~~~~~~~~~~~~~~~~~~~~~~
   -   To further speed up simulation, consider
          add ++aps on command line
   -   Non-default settings that could significantly slow down simulation
          errpreset = conservative, default moderate
          reltol = 10e-06, default 100e-06 (conservative)
~~~~~~~~~~~~~~~~~~~~~~~~~~~~~~~~~


During simulation, the CPU load for active processors is :
         0 (24.0 %)      1 (20.2 %)      2 (100.0 %)     3 (37.0 %)
         4 (9.0 %)       5 (35.5 %)      6 (12.2 %)      7 (21.2 %)
         8 (10.6 %)      9 (56.1 %)     10 (18.1 %)     11 (10.5 %)
        12 (28.0 %)     13 (35.7 %)     14 (33.3 %)     15 (30.0 %)
        16 (24.5 %)     17 (48.3 %)     18 (33.8 %)     19 (33.1 %)
        20 (25.3 %)     21 (34.4 %)     22 (49.0 %)     23 (44.2 %)
        24 (36.6 %)     25 (24.0 %)     26 (12.9 %)     27 (13.5 %)
        28 (45.8 %)     29 (65.0 %)     30 (11.7 %)     31 (20.6 %)
        32 (23.0 %)     33 (14.7 %)     34 (16.3 %)     35 (15.5 %)
        36 (30.4 %)     37 (26.8 %)     38 (30.2 %)     39 (29.2 %)
        40 (31.5 %)     41 (18.1 %)     42 (32.1 %)     43 (31.2 %)
        44 (36.9 %)     45 (26.9 %)     46 (25.5 %)     47 (29.8 %)
        Total: 1422.3%
Initial condition solution time: CPU = 2.548 ms, elapsed = 2.54917 ms.
Intrinsic tran analysis time:    CPU = 447.594 ms, elapsed = 449.695 ms.
Total time required for tran analysis `tran': CPU = 453.089 ms, elapsed = 455.923 ms, util. = 99.4%.
Time accumulated: CPU = 49.0178 s, elapsed = 50.9748 s.
Peak resident memory used = 215 Mbytes.


Notice from spectre during transient analysis `tran', during Monte Carlo analysis `mc1'.
    34 warnings suppressed.

finalTimeOP: writing operating point information to rawfile.

Opening the PSF file ../psf/mc1_separate/098/finalTimeOP.info ...
modelParameter: writing model parameter values to rawfile.

Opening the PSF file ../psf/mc1_separate/098/modelParameter.info ...
element: writing instance parameter values to rawfile.

Opening the PSF file ../psf/mc1_separate/098/element.info ...
outputParameter: writing output parameter values to rawfile.

Opening the PSF file ../psf/mc1_separate/098/outputParameter.info ...
designParamVals: writing netlist parameters to rawfile.

Opening the PSFASCII file ../psf/mc1_separate/098/designParamVals.info ...
primitives: writing primitives to rawfile.

Opening the PSFASCII file ../psf/mc1_separate/098/primitives.info.primitives ...
subckts: writing subcircuits to rawfile.

Opening the PSFASCII file ../psf/mc1_separate/098/subckts.info.subckts ...
    mc1: iteration = 98            (98 %), step = 1            (1.01 %)
99  98.99% 

*****************************************************************************************
* 
* INFO: AMS_processOption = C35B4C3
* 
* INFO: Valid Modules  PIP VG5 HIRES
* 
*****************************************************************************************


Notice from spectre during Monte Carlo analysis `mc1'.
    V8: `period' has the unusually large value of 100 s.


***********************************************
Transient Analysis `tran': time = (0 s -> 50 s)
***********************************************

Opening the PSF file ../psf/mc1_separate/099/tran.tran.tran ...

Warning from spectre during check, during IC analysis, during transient analysis `tran', during Monte Carlo analysis `mc1'.
    WARNING (CMI-2943): Parameter checks have been ignored because the valid value for parameter 'trise' could not be found in 'C1'.
    WARNING (CMI-2943): Parameter checks have been ignored because the valid value for parameter 'trise' could not be found in 'I0.R2.CM'.
    WARNING (CMI-2943): Parameter checks have been ignored because the valid value for parameter 'trise' could not be found in 'I0.R2.CS1'.
    WARNING (CMI-2943): Parameter checks have been ignored because the valid value for parameter 'trise' could not be found in 'I0.R2.CS0'.
    WARNING (CMI-2943): Parameter checks have been ignored because the valid value for parameter 'trise' could not be found in 'I0.C3.C1'.
        Further occurrences of this warning will be suppressed.

Convergence achieved in 12 iterations.
DC simulation time: CPU = 2.462 ms, elapsed = 2.46286 ms.
Important parameter values:
    start = 0 s
    outputstart = 0 s
    stop = 50 s
    step = 50 ms
    maxstep = 500 ms
    ic = all
    useprevic = no
    skipdc = no
    reltol = 10e-06
    abstol(V) = 1 uV
    abstol(I) = 1 pA
    temp = -40 C
    tnom = 27 C
    tempeffects = all
    errpreset = conservative
    method = gear2only
    lteratio = 10
    relref = alllocal
    cmin = 0 F
    gmin = 1 pS
    rabsshort = 1 mOhm


Notice from spectre during transient analysis `tran', during Monte Carlo analysis `mc1'.
    Multithreading is disabled due to the size of the design being too small.


Output and IC/nodeset summary:
                 save   8       (current)
                 save   87      (voltage)

    tran: time = 1.305 s     (2.61 %), step = 105.2 ms     (210 m%)
    tran: time = 3.777 s     (7.55 %), step = 375.6 ms     (751 m%)
    tran: time = 6.658 s     (13.3 %), step = 500 ms          (1 %)
    tran: time = 9.158 s     (18.3 %), step = 500 ms          (1 %)
    tran: time = 11.66 s     (23.3 %), step = 500 ms          (1 %)
    tran: time = 14.16 s     (28.3 %), step = 500 ms          (1 %)
    tran: time = 16.66 s     (33.3 %), step = 500 ms          (1 %)
    tran: time = 19.16 s     (38.3 %), step = 500 ms          (1 %)
    tran: time = 21.66 s     (43.3 %), step = 500 ms          (1 %)
    tran: time = 24.16 s     (48.3 %), step = 500 ms          (1 %)
    tran: time = 26.66 s     (53.3 %), step = 500 ms          (1 %)
    tran: time = 29.16 s     (58.3 %), step = 500 ms          (1 %)
    tran: time = 31.66 s     (63.3 %), step = 500 ms          (1 %)
    tran: time = 34.16 s     (68.3 %), step = 500 ms          (1 %)
    tran: time = 36.66 s     (73.3 %), step = 500 ms          (1 %)
    tran: time = 39.16 s     (78.3 %), step = 500 ms          (1 %)
    tran: time = 41.66 s     (83.3 %), step = 500 ms          (1 %)
    tran: time = 44.16 s     (88.3 %), step = 500 ms          (1 %)
    tran: time = 46.66 s     (93.3 %), step = 500 ms          (1 %)
    tran: time = 49.16 s     (98.3 %), step = 500 ms          (1 %)
Number of accepted tran steps =             738

Maximum value achieved for any signal of each quantity: 
V: V(vout) = 3.3 V
I: I(V8:p) = 6.257 uA

~~~~~~~~~~~~~~~~~~~~~~~~~~~~~~~~~
Post-Transient Simulation Summary
~~~~~~~~~~~~~~~~~~~~~~~~~~~~~~~~~
   -   To further speed up simulation, consider
          add ++aps on command line
   -   Non-default settings that could significantly slow down simulation
          errpreset = conservative, default moderate
          reltol = 10e-06, default 100e-06 (conservative)
~~~~~~~~~~~~~~~~~~~~~~~~~~~~~~~~~


During simulation, the CPU load for active processors is :
         0 (24.5 %)      1 (20.7 %)      2 (100.0 %)     3 (37.6 %)
         4 (9.4 %)       5 (35.7 %)      6 (12.8 %)      7 (21.7 %)
         8 (11.2 %)      9 (56.2 %)     10 (18.5 %)     11 (11.1 %)
        12 (28.3 %)     13 (35.9 %)     14 (33.6 %)     15 (30.4 %)
        16 (24.9 %)     17 (48.6 %)     18 (34.3 %)     19 (33.6 %)
        20 (25.8 %)     21 (34.8 %)     22 (49.2 %)     23 (44.4 %)
        24 (36.8 %)     25 (24.3 %)     26 (13.4 %)     27 (14.1 %)
        28 (46.1 %)     29 (65.3 %)     30 (12.2 %)     31 (21.0 %)
        32 (23.6 %)     33 (15.2 %)     34 (16.9 %)     35 (16.0 %)
        36 (31.0 %)     37 (27.4 %)     38 (30.6 %)     39 (29.7 %)
        40 (31.9 %)     41 (18.7 %)     42 (32.5 %)     43 (31.5 %)
        44 (37.3 %)     45 (27.2 %)     46 (26.0 %)     47 (30.1 %)
        Total: 1442.1%
Initial condition solution time: CPU = 2.503 ms, elapsed = 2.50483 ms.
Intrinsic tran analysis time:    CPU = 419.249 ms, elapsed = 421.865 ms.
Total time required for tran analysis `tran': CPU = 424.503 ms, elapsed = 427.934 ms, util. = 99.2%.
Time accumulated: CPU = 49.4872 s, elapsed = 51.4598 s.
Peak resident memory used = 215 Mbytes.


Notice from spectre during transient analysis `tran', during Monte Carlo analysis `mc1'.
    34 warnings suppressed.

finalTimeOP: writing operating point information to rawfile.

Opening the PSF file ../psf/mc1_separate/099/finalTimeOP.info ...
modelParameter: writing model parameter values to rawfile.

Opening the PSF file ../psf/mc1_separate/099/modelParameter.info ...
element: writing instance parameter values to rawfile.

Opening the PSF file ../psf/mc1_separate/099/element.info ...
outputParameter: writing output parameter values to rawfile.

Opening the PSF file ../psf/mc1_separate/099/outputParameter.info ...
designParamVals: writing netlist parameters to rawfile.

Opening the PSFASCII file ../psf/mc1_separate/099/designParamVals.info ...
primitives: writing primitives to rawfile.

Opening the PSFASCII file ../psf/mc1_separate/099/primitives.info.primitives ...
subckts: writing subcircuits to rawfile.

Opening the PSFASCII file ../psf/mc1_separate/099/subckts.info.subckts ...
    mc1: iteration = 99            (99 %), step = 1            (1.01 %)
100 100.00% 

*****************************************************************************************
* 
* INFO: AMS_processOption = C35B4C3
* 
* INFO: Valid Modules  PIP VG5 HIRES
* 
*****************************************************************************************


Notice from spectre during Monte Carlo analysis `mc1'.
    V8: `period' has the unusually large value of 100 s.


***********************************************
Transient Analysis `tran': time = (0 s -> 50 s)
***********************************************

Opening the PSF file ../psf/mc1_separate/100/tran.tran.tran ...

Warning from spectre during check, during IC analysis, during transient analysis `tran', during Monte Carlo analysis `mc1'.
    WARNING (CMI-2943): Parameter checks have been ignored because the valid value for parameter 'trise' could not be found in 'C1'.
    WARNING (CMI-2943): Parameter checks have been ignored because the valid value for parameter 'trise' could not be found in 'I0.R2.CM'.
    WARNING (CMI-2943): Parameter checks have been ignored because the valid value for parameter 'trise' could not be found in 'I0.R2.CS1'.
    WARNING (CMI-2943): Parameter checks have been ignored because the valid value for parameter 'trise' could not be found in 'I0.R2.CS0'.
    WARNING (CMI-2943): Parameter checks have been ignored because the valid value for parameter 'trise' could not be found in 'I0.C3.C1'.
        Further occurrences of this warning will be suppressed.

Convergence achieved in 12 iterations.
DC simulation time: CPU = 2.227 ms, elapsed = 2.22802 ms.
Important parameter values:
    start = 0 s
    outputstart = 0 s
    stop = 50 s
    step = 50 ms
    maxstep = 500 ms
    ic = all
    useprevic = no
    skipdc = no
    reltol = 10e-06
    abstol(V) = 1 uV
    abstol(I) = 1 pA
    temp = -40 C
    tnom = 27 C
    tempeffects = all
    errpreset = conservative
    method = gear2only
    lteratio = 10
    relref = alllocal
    cmin = 0 F
    gmin = 1 pS
    rabsshort = 1 mOhm


Notice from spectre during transient analysis `tran', during Monte Carlo analysis `mc1'.
    Multithreading is disabled due to the size of the design being too small.


Output and IC/nodeset summary:
                 save   8       (current)
                 save   87      (voltage)

    tran: time = 1.272 s     (2.54 %), step = 99.96 ms     (200 m%)
    tran: time = 4.018 s     (8.04 %), step = 398.9 ms     (798 m%)
    tran: time = 6.447 s     (12.9 %), step = 500 ms          (1 %)
    tran: time = 8.947 s     (17.9 %), step = 500 ms          (1 %)
    tran: time = 11.45 s     (22.9 %), step = 500 ms          (1 %)
    tran: time = 13.95 s     (27.9 %), step = 500 ms          (1 %)
    tran: time = 16.45 s     (32.9 %), step = 500 ms          (1 %)
    tran: time = 18.95 s     (37.9 %), step = 500 ms          (1 %)
    tran: time = 21.45 s     (42.9 %), step = 500 ms          (1 %)
    tran: time = 23.95 s     (47.9 %), step = 500 ms          (1 %)
    tran: time = 26.45 s     (52.9 %), step = 500 ms          (1 %)
    tran: time = 28.95 s     (57.9 %), step = 500 ms          (1 %)
    tran: time = 31.45 s     (62.9 %), step = 500 ms          (1 %)
    tran: time = 33.95 s     (67.9 %), step = 500 ms          (1 %)
    tran: time = 36.45 s     (72.9 %), step = 500 ms          (1 %)
    tran: time = 38.95 s     (77.9 %), step = 500 ms          (1 %)
    tran: time = 41.45 s     (82.9 %), step = 500 ms          (1 %)
    tran: time = 43.95 s     (87.9 %), step = 500 ms          (1 %)
    tran: time = 46.45 s     (92.9 %), step = 500 ms          (1 %)
    tran: time = 48.95 s     (97.9 %), step = 500 ms          (1 %)
Number of accepted tran steps =             740

Maximum value achieved for any signal of each quantity: 
V: V(vout) = 3.3 V
I: I(V8:p) = 6.661 uA

~~~~~~~~~~~~~~~~~~~~~~~~~~~~~~~~~
Post-Transient Simulation Summary
~~~~~~~~~~~~~~~~~~~~~~~~~~~~~~~~~
   -   To further speed up simulation, consider
          add ++aps on command line
   -   Non-default settings that could significantly slow down simulation
          errpreset = conservative, default moderate
          reltol = 10e-06, default 100e-06 (conservative)
~~~~~~~~~~~~~~~~~~~~~~~~~~~~~~~~~


During simulation, the CPU load for active processors is :
         0 (25.2 %)      1 (21.0 %)      2 (100.0 %)     3 (38.2 %)
         4 (9.7 %)       5 (35.7 %)      6 (13.2 %)      7 (22.0 %)
         8 (11.6 %)      9 (56.1 %)     10 (18.7 %)     11 (11.5 %)
        12 (28.4 %)     13 (36.1 %)     14 (33.7 %)     15 (30.5 %)
        16 (25.3 %)     17 (49.1 %)     18 (34.7 %)     19 (33.8 %)
        20 (26.2 %)     21 (34.9 %)     22 (49.4 %)     23 (44.5 %)
        24 (36.7 %)     25 (24.5 %)     26 (13.8 %)     27 (14.5 %)
        28 (46.1 %)     29 (65.6 %)     30 (12.4 %)     31 (21.2 %)
        32 (23.8 %)     33 (15.4 %)     34 (17.7 %)     35 (16.2 %)
        36 (31.4 %)     37 (28.0 %)     38 (30.8 %)     39 (29.6 %)
        40 (32.1 %)     41 (19.2 %)     42 (32.7 %)     43 (31.7 %)
        44 (37.3 %)     45 (27.5 %)     46 (26.1 %)     47 (30.7 %)
        Total: 1454.1%
Initial condition solution time: CPU = 2.264 ms, elapsed = 2.26498 ms.
Intrinsic tran analysis time:    CPU = 403.269 ms, elapsed = 405.203 ms.
Total time required for tran analysis `tran': CPU = 407.942 ms, elapsed = 410.581 ms, util. = 99.4%.
Time accumulated: CPU = 49.935 s, elapsed = 51.9224 s.
Peak resident memory used = 215 Mbytes.


Notice from spectre during transient analysis `tran', during Monte Carlo analysis `mc1'.
    34 warnings suppressed.

finalTimeOP: writing operating point information to rawfile.

Opening the PSF file ../psf/mc1_separate/100/finalTimeOP.info ...
modelParameter: writing model parameter values to rawfile.

Opening the PSF file ../psf/mc1_separate/100/modelParameter.info ...
element: writing instance parameter values to rawfile.

Opening the PSF file ../psf/mc1_separate/100/element.info ...
outputParameter: writing output parameter values to rawfile.

Opening the PSF file ../psf/mc1_separate/100/outputParameter.info ...
designParamVals: writing netlist parameters to rawfile.

Opening the PSFASCII file ../psf/mc1_separate/100/designParamVals.info ...
primitives: writing primitives to rawfile.

Opening the PSFASCII file ../psf/mc1_separate/100/primitives.info.primitives ...
subckts: writing subcircuits to rawfile.

Opening the PSFASCII file ../psf/mc1_separate/100/subckts.info.subckts ...
    mc1: iteration = 100          (100 %), step = 1            (1.01 %)
Total time required for montecarlo analysis `mc1': CPU = 49.5171 s, elapsed = 50.928 s, util. = 97.2%.
Time accumulated: CPU = 49.9634 s, elapsed = 51.9669 s.
Peak resident memory used = 215 Mbytes.

Licensing Information:
Lic Summary:
[16:51:07.321554] Cdslmd servers:3000@lic08.ug.kth.se:29000@lic06.ug.kth.se
[16:51:07.321586] Feature usage summary:
[16:51:07.321587] Virtuoso_Multi_mode_Simulation


Aggregate audit (4:51:07 PM, Wed Apr 15, 2026):
Time used: CPU = 50 s, elapsed = 52 s, util. = 96.1%.
Time spent in licensing: elapsed = 52 ms.
Peak memory used = 215 Mbytes.
Simulation started at: 4:50:15 PM, Wed Apr 15, 2026, ended at: 4:51:07 PM, Wed Apr 15, 2026, with elapsed time (wall clock): 52 s.
spectre completes with 0 errors, 522 warnings, and 310 notices.
