
Spectre (R) Circuit Simulator
Version 24.1.0.288.isr5 64bit -- 3 Apr 2025
Copyright (C) 1989-2025 Cadence Design Systems, Inc. All rights reserved worldwide. Cadence and Spectre are registered trademarks of Cadence Design Systems, Inc. All others are the property of their respective holders.

Includes RSA BSAFE(R) Cryptographic or Security Protocol Software from RSA Security, Inc.

User: davidevi   Host: il2244vt26_davidevi   HostID: 11AC2C00   PID: 1069018
Memory  available: 3.0280 TB  physical: 3.2467 TB
Linux   : Rocky Linux release 8.10 (Green Obsidian)
CPU Type: Intel(R) Xeon(R) CPU E7-8857 v2 @ 3.00GHz
        Socket: Processors [Frequency]
        0:       0 [3392.1],  1 [3600.0],  2 [3600.0],  3 [1200.0],  4 [3600.0]
                 5 [3390.9],  6 [3600.0],  7 [3392.3],  8 [3600.0],  9 [2600.0]
                10 [3392.3], 11 [3600.0]
        1:      12 [3600.0], 13 [3600.0], 14 [3396.2], 15 [3600.0], 16 [3600.0]
                17 [3387.7], 18 [3396.3], 19 [3600.0], 20 [3600.0], 21 [3600.0]
                22 [3300.0], 23 [3396.2]
        2:      24 [3600.0], 25 [3399.9], 26 [3400.0], 27 [3399.9], 28 [3600.0]
                29 [3600.0], 30 [3600.0], 31 [3399.9], 32 [3399.9], 33 [3600.0]
                34 [3600.0], 35 [3500.0]
        3:      36 [3391.5], 37 [3384.3], 38 [3600.0], 39 [3600.0], 40 [3391.5]
                41 [3600.0], 42 [3600.0], 43 [3387.0], 44 [3388.6], 45 [3600.0]
                46 [3381.0], 47 [3388.1]
        
System load averages (1min, 5min, 15min) : 37.1 %, 31.0 %, 24.8 %
HPC is enabled


Simulating `input.scs' on il2244vt26_davidevi at 9:36:35 AM, Thur Apr 16, 2026 (process id: 1069018).
Current working directory: /home/davidevi/Desktop/myproject/Sim/VGA/VGA_1_wakeup_tb/adexl/results/data/MonteCarlo.2/51/wakeup_MC/groupRunDataDir/netlist
Command line:
    /opt/tools/cadence/installs/SPECTRE241/tools/bin/spectre -64  \
        input.scs +escchars +log ../psf/spectre.out -format psfbin  \
        +rtsf -raw ../psf +aps +mt +lqtimeout 900 -maxw 5 -maxn 5  \
        +param /opt/pdk/ams/410/spectre/ams_range.lmts -env ade  \
        -ahdllibdir  \
        /home/davidevi/Desktop/myproject/Sim/VGA/VGA_1_wakeup_tb/adexl/results/data/MonteCarlo.2/sharedData/Job488/ahdl/input.ahdlSimDB  \
        +logstatus  \
        +adespetkn=0001089D13A302B663E41FB550AF0DF415A679A322D5069144BF588C12F604E07EF416DC01A319B562BB63D355F613BF45A36AB65EFF45BB41CD0FE013DB4F9200F179D15D9175FF34986BDD0AF002BA50FD7FD707E002A700AC1C8712FE4CE30EAA79D12BF874D3349879D118F874D334981031B55AD9715D78000036A6

Simulation Id: glwof2uU1h0bBX4i
Licensing Information:
[09:36:35.121810] Configured Lic search path (24.01-s002): 3000@lic08.ug.kth.se:29000@lic06.ug.kth.se

Licensing Information:
[09:36:35.452977] Periodic Lic check successful

Loading /opt/tools/cadence/installs/SPECTRE241/tools.lnx86/cmi/lib/64bit/5.0/libinfineon_sh.so ...
Loading /opt/tools/cadence/installs/SPECTRE241/tools.lnx86/cmi/lib/64bit/5.0/libphilips_I_sh.so ...
Loading /opt/tools/cadence/installs/SPECTRE241/tools.lnx86/cmi/lib/64bit/5.0/libphilips_sh.so ...
Loading /opt/tools/cadence/installs/SPECTRE241/tools.lnx86/cmi/lib/64bit/5.0/libsparam_sh.so ...
Loading /opt/tools/cadence/installs/SPECTRE241/tools.lnx86/cmi/lib/64bit/5.0/libstmodels_sh.so ...

Warning from spectre.
    WARNING (SPECTRE-691): This CPU processor does not support x86 advanced vector extensions instructions. This may affect math operations and slow down the simulation.

Reading file:  /home/davidevi/Desktop/myproject/Sim/VGA/VGA_1_wakeup_tb/adexl/results/data/MonteCarlo.2/51/wakeup_MC/groupRunDataDir/netlist/input.scs
Reading file:  /opt/pdk/ams/410/spectre/ams_range.lmts

Warning from spectre during read of parameter soft limits file `/opt/pdk/ams/410/spectre/ams_range.lmts', during circuit read-in.
    WARNING (SPECTRE-8360): line 1511: `ac' is an undefined primitive device.
    WARNING (SPECTRE-8360): line 1512: `ac' is an undefined primitive device.
    WARNING (SPECTRE-8360): line 1513: `ac' is an undefined primitive device.
    WARNING (SPECTRE-8360): line 1514: `ac' is an undefined primitive device.
    WARNING (SPECTRE-8360): line 1515: `ac' is an undefined primitive device.
        Further occurrences of this warning will be suppressed.

Reading file:  /opt/tools/cadence/installs/SPECTRE241/tools.lnx86/spectre/etc/configs/spectre.cfg
Reading file:  /opt/pdk/ams/410/spectre/c35/soac/soac.scs
Reading file:  /opt/pdk/ams/410/spectre/c35/soac/processOption.scs
Reading file:  /opt/pdk/ams/410/spectre/c35/soac/process.scs
Reading file:  /opt/pdk/ams/410/spectre/c35/soac/soac.va

Warning from spectre during AHDL read-in.
    WARNING (VACOMP-2435): The environment variable CDS_AHDLCMI_ENABLE is no longer supported. Therefore, the simulator will use the default compiled C code flow.

Reading link:  /opt/tools/cadence/installs/SPECTRE241/tools.lnx86/spectre/etc/ahdl/constants.h
Reading file:  /opt/tools/cadence/installs/SPECTRE241/tools.lnx86/spectre/etc/ahdl/constants.vams
Reading link:  /opt/tools/cadence/installs/SPECTRE241/tools.lnx86/spectre/etc/ahdl/discipline.h
Reading file:  /opt/tools/cadence/installs/SPECTRE241/tools.lnx86/spectre/etc/ahdl/disciplines.vams
Reading file:  /opt/pdk/ams/410/spectre/c35/processOption/C35B4C3.scs
Reading file:  /opt/pdk/ams/410/spectre/c35/soac/cmos53.scs
Reading file:  /opt/pdk/ams/410/spectre/c35/soac/res.scs
Reading file:  /opt/pdk/ams/410/spectre/c35/soac/cap.scs
Reading file:  /opt/pdk/ams/410/spectre/c35/soac/bip.scs
Reading file:  /opt/pdk/ams/410/spectre/c35/soac/ind.scs
Reading file:  /opt/pdk/ams/410/spectre/c35/soac/esddiode.scs
Time for NDB Parsing: CPU = 175.03 ms, elapsed = 445.553 ms.
Time accumulated: CPU = 358.808 ms, elapsed = 445.556 ms.
Peak resident memory used = 171 Mbytes.

Existing shared object for module modn_ahdl is up to date.
Installed compiled interface for modn_ahdl.
Existing shared object for module modp_ahdl is up to date.
Installed compiled interface for modp_ahdl.
Existing shared object for module cpoly_ahdl is up to date.
Installed compiled interface for cpoly_ahdl.
Existing shared object for module rpolyh_ahdl is up to date.
Installed compiled interface for rpolyh_ahdl.
Opening directory /home/davidevi/Desktop/myproject/Sim/VGA/VGA_1_wakeup_tb/adexl/results/data/MonteCarlo.2/sharedData/Job488/ahdl/input.ahdlSimDB/input.ahdlSimDB/ (775)
Created directory /home/davidevi/Desktop/myproject/Sim/VGA/VGA_1_wakeup_tb/adexl/results/data/MonteCarlo.2/sharedData/Job488/ahdl/input.ahdlSimDB/input.ahdlSimDB//bsource_fcab9d.va.bsource_fcab9d.ahdlcmi/ (775)
Reading file:  /home/davidevi/Desktop/myproject/Sim/ECG_IA/ecg_vga_tb/adexl/results/data/MonteCarlo.3/sharedData/Job173/ahdl/input.ahdlSimDB/input.ahdlSimDB/bsource_fcab9d.va.bsource_fcab9d.ahdlcmi/Linux-64/obj/optimize/5.0/libahdlcmi_bsource_fcab9d.so
Created directory /home/davidevi/Desktop/myproject/Sim/VGA/VGA_1_wakeup_tb/adexl/results/data/MonteCarlo.2/sharedData/Job488/ahdl/input.ahdlSimDB/input.ahdlSimDB//bsource_fcab9d.va.bsource_fcab9d.ahdlcmi/Linux-64/obj/optimize/5.0 
Copying files from directory /home/davidevi/Desktop/myproject/Sim/ECG_IA/ecg_vga_tb/adexl/results/data/MonteCarlo.3/sharedData/Job173/ahdl/input.ahdlSimDB/input.ahdlSimDB/bsource_fcab9d.va.bsource_fcab9d.ahdlcmi/Linux-64/ to directory /home/davidevi/Desktop/myproject/Sim/VGA/VGA_1_wakeup_tb/adexl/results/data/MonteCarlo.2/sharedData/Job488/ahdl/input.ahdlSimDB/input.ahdlSimDB//bsource_fcab9d.va.bsource_fcab9d.ahdlcmi/Linux-64/
Finished copying files from /home/davidevi/Desktop/myproject/Sim/ECG_IA/ecg_vga_tb/adexl/results/data/MonteCarlo.3/sharedData/Job173/ahdl/input.ahdlSimDB/input.ahdlSimDB/bsource_fcab9d.va.bsource_fcab9d.ahdlcmi/Linux-64/ to /home/davidevi/Desktop/myproject/Sim/VGA/VGA_1_wakeup_tb/adexl/results/data/MonteCarlo.2/sharedData/Job488/ahdl/input.ahdlSimDB/input.ahdlSimDB//bsource_fcab9d.va.bsource_fcab9d.ahdlcmi/Linux-64/.
The simulator has reused the existing Verilog-A libraries for this simulation run. If you do not want to use these libraries, set the 'CDS_AHDL_REUSE_LIB' environment variable to 'NO' and rerun the simulation.
Existing shared object for module bsource_fcab9d is up to date.
Installed compiled interface for bsource_fcab9d.
Time for Elaboration: CPU = 210.774 ms, elapsed = 361.812 ms.
Time accumulated: CPU = 569.772 ms, elapsed = 807.557 ms.
Peak resident memory used = 188 Mbytes.


Notice from spectre during hierarchy flattening.
    The value 'psf' specified for the 'checklimitdest' option will no longer be supported in future releases. Use 'spectre -h' to see other recommended values for the 'checklimitdest' option.


*****************************************************************************************
* 
* INFO: AMS_processOption = C35B4C3
* 
* INFO: Valid Modules  PIP VG5 HIRES
* 
*****************************************************************************************


Notice from spectre during hierarchy flattening.
    V8: `period' has the unusually large value of 100 s.


Time for EDB Visiting: CPU = 8.932 ms, elapsed = 9.727 ms.
Time accumulated: CPU = 578.882 ms, elapsed = 817.46 ms.
Peak resident memory used = 190 Mbytes.

Loading /opt/tools/cadence/installs/SPECTRE241/tools.lnx86/mdl/lib/64bit/libSpectreEH_sh.so ...

Warning from spectre during initial setup.
    WARNING (SPECTRE-16460): SOAC_cvarm_vspsub:Specified subcircuit master `cvarm' was not found.
    WARNING (SPECTRE-16462): SOAC_cvarm_vspsub:Error in specification of subcircuit master. Assert is ignored.
    WARNING (SPECTRE-16460): SOAC_cvarm_vbs:Specified subcircuit master `cvarm' was not found.
    WARNING (SPECTRE-16462): SOAC_cvarm_vbs:Error in specification of subcircuit master. Assert is ignored.
    WARNING (SPECTRE-16460): SOAC_cvarm_vgb:Specified subcircuit master `cvarm' was not found.
    WARNING (SPECTRE-16462): SOAC_cvarm_vgb:Error in specification of subcircuit master. Assert is ignored.
    WARNING (SPECTRE-16460): SOAC_cvart_vspsub:Specified subcircuit master `cvart' was not found.
    WARNING (SPECTRE-16462): SOAC_cvart_vspsub:Error in specification of subcircuit master. Assert is ignored.
    WARNING (SPECTRE-16460): SOAC_cvart_vbs:Specified subcircuit master `cvart' was not found.
        Further occurrences of this warning will be suppressed.
    WARNING (SPECTRE-16462): SOAC_cvart_vbs:Error in specification of subcircuit master. Assert is ignored.
        Further occurrences of this warning will be suppressed.
Notice from spectre during topology check.
    Only one connection to the following 54 nodes:
        I0.MN6.psub!
        I0.MN5.psub!
        I0.MN4.psub!
        I0.MN3.psub!
        I0.MN2.psub!
        Further occurrences of this notice will be suppressed.
Notice from spectre during initial setup.
    Multithreading is disabled due to the size of the design being too small.


Netlist title:
        // Point Netlist Generated on: Apr 16 09:36:35 2026


Global user options:
         psfversion = 1.4.0
            vabstol = 1e-06
            iabstol = 1e-12
               temp = 27
           homotopy = 5
              limit = delta
         compatible = spice2
               gmin = 1e-12
             rforce = 1
           maxnotes = 5
           maxwarns = 5
             digits = 5
               cols = 80
             pivrel = 0.001
           sensfile = ../psf/sens.output
     checklimitdest = psf
     enable_pre_ver = yes
      ignorezerovar = yes
               save = allpub
             reltol = 0.0001
               tnom = 27
             scalem = 1
              scale = 1

Scoped user options:

Circuit inventory:
              nodes 88
            bsim3v3 35    
     bsource_fcab9d 2     
          capacitor 38    
         cpoly_ahdl 17    
            isource 1     
          modn_ahdl 19    
          modp_ahdl 16    
           resistor 1     
        rpolyh_ahdl 2     
            vsource 8     

Analysis and control statement inventory:
               info 7     
         montecarlo 1     
               tran 1     

Output statements:
             .probe 0     
           .measure 0     
               save 0     

Design checks inventory:
          paramtest 55    
             assert 175   


Notice from spectre during initial setup.
    APS enabled.
    1 notice suppressed.
    72 warnings suppressed.

Time for parsing: CPU = 16.558 ms, elapsed = 659.208 ms.
Time accumulated: CPU = 595.546 ms, elapsed = 1.47677 s.
Peak resident memory used = 197 Mbytes.

~~~~~~~~~~~~~~~~~~~~~~
Pre-Simulation Summary
~~~~~~~~~~~~~~~~~~~~~~
   -   (APS) Multi-threading. The recommended number of threads is 1, consider adding +mt=1 on command line.
~~~~~~~~~~~~~~~~~~~~~~

**************************************************
Monte Carlo Analysis `mc1': iteration = (51 -> 75)
**************************************************
Important parameter values:
    seed = 12345
    sampling = lds
    variations = all
    firstrun = 51
    numruns = 25
    nullmfactorcorrelation = no
    donominal = no
    method = standard
Opening iteration number and data-directory mapping file:  /home/davidevi/Desktop/myproject/Sim/VGA/VGA_1_wakeup_tb/adexl/results/data/MonteCarlo.2/51/wakeup_MC/groupRunDataDir/netlist/../psf/mc1.mapping

Statistical parameters:
    Defined process parameters: 629
    Defined mismatch parameters (subckt based): 86
    Non-referenced mismatch parameters: 80
    Number of random variables: 718
    Gaussian truncation for process parameters: 4.00 sigma
    Gaussian truncation for mismatch parameters: 4.00 sigma


**** Skipping runs 1 to 50 for `mc1'


Opening the PSF file ../psf/mc1_tran.montecarlo ...

Opening the PSF file ../psf/mc1_finalTimeOP.montecarlo ...

Opening the PSF file ../psf/mc1_modelParameter.montecarlo ...

Opening the PSF file ../psf/mc1_element.montecarlo ...

Opening the PSF file ../psf/mc1_outputParameter.montecarlo ...

Opening the PSF file ../psf/mc1_designParamVals.montecarlo ...

Opening the PSF file ../psf/mc1_primitives.montecarlo ...

Opening the PSF file ../psf/mc1_subckts.montecarlo ...

**** Performing monte carlo loop for `mc1'

51   0.00% 

*****************************************************************************************
* 
* INFO: AMS_processOption = C35B4C3
* 
* INFO: Valid Modules  PIP VG5 HIRES
* 
*****************************************************************************************


Notice from spectre at iteration = 51 during Monte Carlo analysis `mc1'.
    V8: `period' has the unusually large value of 100 s.
Notice from spectre at iteration = 51 during transient analysis `tran', during Monte Carlo analysis `mc1'.
    No checklimit analysis defined for asserts. A default checklimit analysis 'SpectreChecklimitAnal' has been created with all asserts enabled.


***********************************************
Transient Analysis `tran': time = (0 s -> 50 s)
***********************************************

Opening the PSF file ../psf/mc1_separate/051/tran.tran.tran ...

Warning from spectre at iteration = 51 during check, during IC analysis, during transient analysis `tran', during Monte Carlo analysis `mc1'.
    WARNING (CMI-2943): Parameter checks have been ignored because the valid value for parameter 'trise' could not be found in 'C1'.
    WARNING (CMI-2943): Parameter checks have been ignored because the valid value for parameter 'trise' could not be found in 'I0.R2.CM'.
    WARNING (CMI-2943): Parameter checks have been ignored because the valid value for parameter 'trise' could not be found in 'I0.R2.CS1'.
    WARNING (CMI-2943): Parameter checks have been ignored because the valid value for parameter 'trise' could not be found in 'I0.R2.CS0'.
    WARNING (CMI-2943): Parameter checks have been ignored because the valid value for parameter 'trise' could not be found in 'I0.C8<3>.C1'.
        Further occurrences of this warning will be suppressed.

Convergence achieved in 12 iterations.
DC simulation time: CPU = 2.872 ms, elapsed = 2.87318 ms.
Important parameter values:
    start = 0 s
    outputstart = 0 s
    stop = 50 s
    step = 50 ms
    maxstep = 500 ms
    ic = all
    useprevic = no
    skipdc = no
    reltol = 10e-06
    abstol(V) = 1 uV
    abstol(I) = 1 pA
    temp = 27 C
    tnom = 27 C
    tempeffects = all
    errpreset = conservative
    method = gear2only
    lteratio = 10
    relref = alllocal
    cmin = 0 F
    gmin = 1 pS
    rabsshort = 1 mOhm


Notice from spectre at iteration = 51 during transient analysis `tran', during Monte Carlo analysis `mc1'.
    Multithreading is disabled due to the size of the design being too small.


Output and IC/nodeset summary:
                 save   8       (current)
                 save   87      (voltage)

    tran: time = 1.25 s       (2.5 %), step = 99.62 ms     (199 m%)
    tran: time = 3.801 s      (7.6 %), step = 115.8 ms     (232 m%)
    tran: time = 6.325 s     (12.7 %), step = 365.3 ms     (731 m%)
    tran: time = 9.136 s     (18.3 %), step = 500 ms          (1 %)
    tran: time = 11.64 s     (23.3 %), step = 500 ms          (1 %)
    tran: time = 14.14 s     (28.3 %), step = 500 ms          (1 %)
    tran: time = 16.64 s     (33.3 %), step = 500 ms          (1 %)
    tran: time = 19.14 s     (38.3 %), step = 500 ms          (1 %)
    tran: time = 21.64 s     (43.3 %), step = 500 ms          (1 %)
    tran: time = 24.14 s     (48.3 %), step = 500 ms          (1 %)
    tran: time = 26.64 s     (53.3 %), step = 500 ms          (1 %)
    tran: time = 29.14 s     (58.3 %), step = 500 ms          (1 %)
    tran: time = 31.64 s     (63.3 %), step = 500 ms          (1 %)
    tran: time = 34.14 s     (68.3 %), step = 500 ms          (1 %)
    tran: time = 36.64 s     (73.3 %), step = 500 ms          (1 %)
    tran: time = 39.14 s     (78.3 %), step = 500 ms          (1 %)
    tran: time = 41.64 s     (83.3 %), step = 500 ms          (1 %)
    tran: time = 44.14 s     (88.3 %), step = 500 ms          (1 %)
    tran: time = 46.64 s     (93.3 %), step = 500 ms          (1 %)
    tran: time = 49.14 s     (98.3 %), step = 500 ms          (1 %)
Number of accepted tran steps =             732

Maximum value achieved for any signal of each quantity: 
V: V(vout_filt) = 3.3 V
I: I(V8:p) = 6.544 uA

~~~~~~~~~~~~~~~~~~~~~~~~~~~~~~~~~
Post-Transient Simulation Summary
~~~~~~~~~~~~~~~~~~~~~~~~~~~~~~~~~
   -   To further speed up simulation, consider
          add ++aps on command line
   -   Non-default settings that could significantly slow down simulation
          errpreset = conservative, default moderate
          reltol = 10e-06, default 100e-06 (conservative)
~~~~~~~~~~~~~~~~~~~~~~~~~~~~~~~~~


During simulation, the CPU load for active processors is :
         0 (13.5 %)      1 (40.5 %)      2 (26.0 %)      3 (27.2 %)
         4 (45.1 %)      5 (47.1 %)      6 (7.6 %)       7 (100.0 %)
         8 (4.1 %)       9 (33.3 %)     10 (98.9 %)     11 (4.1 %)
        12 (33.0 %)     13 (66.1 %)     14 (27.9 %)     15 (26.7 %)
        16 (36.0 %)     17 (94.9 %)     18 (12.6 %)     19 (41.0 %)
        20 (19.7 %)     21 (30.2 %)     22 (31.0 %)     23 (26.0 %)
        24 (13.9 %)     25 (87.8 %)     26 (16.3 %)     27 (57.2 %)
        28 (61.2 %)     29 (62.6 %)     30 (45.4 %)     31 (8.7 %)
        32 (94.2 %)     33 (67.6 %)     34 (3.6 %)      35 (13.0 %)
        36 (100.0 %)    37 (7.8 %)      38 (15.4 %)     39 (19.6 %)
        40 (100.0 %)    41 (21.5 %)     42 (16.4 %)     43 (67.6 %)
        44 (61.8 %)     45 (8.9 %)      46 (32.4 %)     47 (8.7 %)
        Total: 1884.1%
Initial condition solution time: CPU = 2.911 ms, elapsed = 2.91395 ms.
Intrinsic tran analysis time:    CPU = 390.685 ms, elapsed = 391.945 ms.
Total time required for tran analysis `tran': CPU = 467.853 ms, elapsed = 471.746 ms, util. = 99.2%.
Time accumulated: CPU = 1.13942 s, elapsed = 2.03066 s.
Peak resident memory used = 212 Mbytes.


Notice from spectre during transient analysis `tran', during Monte Carlo analysis `mc1'.
    34 warnings suppressed.

finalTimeOP: writing operating point information to rawfile.

Opening the PSF file ../psf/mc1_separate/051/finalTimeOP.info ...
modelParameter: writing model parameter values to rawfile.

Opening the PSF file ../psf/mc1_separate/051/modelParameter.info ...
element: writing instance parameter values to rawfile.

Opening the PSF file ../psf/mc1_separate/051/element.info ...
outputParameter: writing output parameter values to rawfile.

Opening the PSF file ../psf/mc1_separate/051/outputParameter.info ...
designParamVals: writing netlist parameters to rawfile.

Opening the PSFASCII file ../psf/mc1_separate/051/designParamVals.info ...
primitives: writing primitives to rawfile.

Opening the PSFASCII file ../psf/mc1_separate/051/primitives.info.primitives ...
subckts: writing subcircuits to rawfile.

Opening the PSFASCII file ../psf/mc1_separate/051/subckts.info.subckts ...
52   4.17% 

*****************************************************************************************
* 
* INFO: AMS_processOption = C35B4C3
* 
* INFO: Valid Modules  PIP VG5 HIRES
* 
*****************************************************************************************


Notice from spectre during Monte Carlo analysis `mc1'.
    V8: `period' has the unusually large value of 100 s.


***********************************************
Transient Analysis `tran': time = (0 s -> 50 s)
***********************************************

Opening the PSF file ../psf/mc1_separate/052/tran.tran.tran ...

Warning from spectre during check, during IC analysis, during transient analysis `tran', during Monte Carlo analysis `mc1'.
    WARNING (CMI-2943): Parameter checks have been ignored because the valid value for parameter 'trise' could not be found in 'C1'.
    WARNING (CMI-2943): Parameter checks have been ignored because the valid value for parameter 'trise' could not be found in 'I0.R2.CM'.
    WARNING (CMI-2943): Parameter checks have been ignored because the valid value for parameter 'trise' could not be found in 'I0.R2.CS1'.
    WARNING (CMI-2943): Parameter checks have been ignored because the valid value for parameter 'trise' could not be found in 'I0.R2.CS0'.
    WARNING (CMI-2943): Parameter checks have been ignored because the valid value for parameter 'trise' could not be found in 'I0.C8<3>.C1'.
        Further occurrences of this warning will be suppressed.

Convergence achieved in 12 iterations.
DC simulation time: CPU = 2.26 ms, elapsed = 2.26903 ms.
Important parameter values:
    start = 0 s
    outputstart = 0 s
    stop = 50 s
    step = 50 ms
    maxstep = 500 ms
    ic = all
    useprevic = no
    skipdc = no
    reltol = 10e-06
    abstol(V) = 1 uV
    abstol(I) = 1 pA
    temp = 27 C
    tnom = 27 C
    tempeffects = all
    errpreset = conservative
    method = gear2only
    lteratio = 10
    relref = alllocal
    cmin = 0 F
    gmin = 1 pS
    rabsshort = 1 mOhm


Notice from spectre during transient analysis `tran', during Monte Carlo analysis `mc1'.
    Multithreading is disabled due to the size of the design being too small.


Output and IC/nodeset summary:
                 save   8       (current)
                 save   87      (voltage)

    tran: time = 1.355 s     (2.71 %), step = 128.5 ms     (257 m%)
    tran: time = 4.072 s     (8.14 %), step = 381.6 ms     (763 m%)
    tran: time = 6.434 s     (12.9 %), step = 500 ms          (1 %)
    tran: time = 8.934 s     (17.9 %), step = 500 ms          (1 %)
    tran: time = 11.43 s     (22.9 %), step = 500 ms          (1 %)
    tran: time = 13.93 s     (27.9 %), step = 500 ms          (1 %)
    tran: time = 16.43 s     (32.9 %), step = 500 ms          (1 %)
    tran: time = 18.93 s     (37.9 %), step = 500 ms          (1 %)
    tran: time = 21.43 s     (42.9 %), step = 500 ms          (1 %)
    tran: time = 23.93 s     (47.9 %), step = 500 ms          (1 %)
    tran: time = 26.43 s     (52.9 %), step = 500 ms          (1 %)
    tran: time = 28.93 s     (57.9 %), step = 500 ms          (1 %)
    tran: time = 31.43 s     (62.9 %), step = 500 ms          (1 %)
    tran: time = 33.93 s     (67.9 %), step = 500 ms          (1 %)
    tran: time = 36.43 s     (72.9 %), step = 500 ms          (1 %)
    tran: time = 38.93 s     (77.9 %), step = 500 ms          (1 %)
    tran: time = 41.43 s     (82.9 %), step = 500 ms          (1 %)
    tran: time = 43.93 s     (87.9 %), step = 500 ms          (1 %)
    tran: time = 46.43 s     (92.9 %), step = 500 ms          (1 %)
    tran: time = 48.93 s     (97.9 %), step = 500 ms          (1 %)
Number of accepted tran steps =             741

Maximum value achieved for any signal of each quantity: 
V: V(vout) = 3.3 V
I: I(V8:p) = 6.57 uA

~~~~~~~~~~~~~~~~~~~~~~~~~~~~~~~~~
Post-Transient Simulation Summary
~~~~~~~~~~~~~~~~~~~~~~~~~~~~~~~~~
   -   To further speed up simulation, consider
          add ++aps on command line
   -   Non-default settings that could significantly slow down simulation
          errpreset = conservative, default moderate
          reltol = 10e-06, default 100e-06 (conservative)
~~~~~~~~~~~~~~~~~~~~~~~~~~~~~~~~~


During simulation, the CPU load for active processors is :
         0 (11.7 %)      1 (42.7 %)      2 (20.7 %)      3 (34.2 %)
         4 (40.3 %)      5 (59.3 %)      6 (6.7 %)       7 (100.0 %)
         8 (4.5 %)       9 (47.1 %)     10 (76.8 %)     11 (6.6 %)
        12 (28.3 %)     13 (53.5 %)     14 (29.2 %)     15 (22.3 %)
        16 (35.5 %)     17 (88.7 %)     18 (26.2 %)     19 (32.7 %)
        20 (20.9 %)     21 (27.7 %)     22 (47.1 %)     23 (33.6 %)
        24 (11.5 %)     25 (89.0 %)     26 (13.8 %)     27 (45.1 %)
        28 (69.6 %)     29 (71.5 %)     30 (36.6 %)     31 (6.7 %)
        32 (93.9 %)     33 (75.2 %)     34 (5.0 %)      35 (10.8 %)
        36 (100.0 %)    37 (27.0 %)     38 (19.7 %)     39 (22.5 %)
        40 (100.0 %)    41 (21.7 %)     42 (14.3 %)     43 (52.7 %)
        44 (66.1 %)     45 (7.7 %)      46 (28.6 %)     47 (10.6 %)
        Total: 1895.9%
Initial condition solution time: CPU = 2.312 ms, elapsed = 2.321 ms.
Intrinsic tran analysis time:    CPU = 387.852 ms, elapsed = 389.081 ms.
Total time required for tran analysis `tran': CPU = 392.562 ms, elapsed = 394.405 ms, util. = 99.5%.
Time accumulated: CPU = 1.57577 s, elapsed = 2.47897 s.
Peak resident memory used = 212 Mbytes.


Notice from spectre during transient analysis `tran', during Monte Carlo analysis `mc1'.
    34 warnings suppressed.

finalTimeOP: writing operating point information to rawfile.

Opening the PSF file ../psf/mc1_separate/052/finalTimeOP.info ...
modelParameter: writing model parameter values to rawfile.

Opening the PSF file ../psf/mc1_separate/052/modelParameter.info ...
element: writing instance parameter values to rawfile.

Opening the PSF file ../psf/mc1_separate/052/element.info ...
outputParameter: writing output parameter values to rawfile.

Opening the PSF file ../psf/mc1_separate/052/outputParameter.info ...
designParamVals: writing netlist parameters to rawfile.

Opening the PSFASCII file ../psf/mc1_separate/052/designParamVals.info ...
primitives: writing primitives to rawfile.

Opening the PSFASCII file ../psf/mc1_separate/052/primitives.info.primitives ...
subckts: writing subcircuits to rawfile.

Opening the PSFASCII file ../psf/mc1_separate/052/subckts.info.subckts ...
    mc1: iteration = 52          (4.17 %), step = 1            (4.17 %)
53   8.33% 

*****************************************************************************************
* 
* INFO: AMS_processOption = C35B4C3
* 
* INFO: Valid Modules  PIP VG5 HIRES
* 
*****************************************************************************************


Notice from spectre during Monte Carlo analysis `mc1'.
    V8: `period' has the unusually large value of 100 s.


***********************************************
Transient Analysis `tran': time = (0 s -> 50 s)
***********************************************

Opening the PSF file ../psf/mc1_separate/053/tran.tran.tran ...

Warning from spectre during check, during IC analysis, during transient analysis `tran', during Monte Carlo analysis `mc1'.
    WARNING (CMI-2943): Parameter checks have been ignored because the valid value for parameter 'trise' could not be found in 'C1'.
    WARNING (CMI-2943): Parameter checks have been ignored because the valid value for parameter 'trise' could not be found in 'I0.R2.CM'.
    WARNING (CMI-2943): Parameter checks have been ignored because the valid value for parameter 'trise' could not be found in 'I0.R2.CS1'.
    WARNING (CMI-2943): Parameter checks have been ignored because the valid value for parameter 'trise' could not be found in 'I0.R2.CS0'.
    WARNING (CMI-2943): Parameter checks have been ignored because the valid value for parameter 'trise' could not be found in 'I0.C8<3>.C1'.
        Further occurrences of this warning will be suppressed.

Convergence achieved in 12 iterations.
DC simulation time: CPU = 2.285 ms, elapsed = 2.29502 ms.
Important parameter values:
    start = 0 s
    outputstart = 0 s
    stop = 50 s
    step = 50 ms
    maxstep = 500 ms
    ic = all
    useprevic = no
    skipdc = no
    reltol = 10e-06
    abstol(V) = 1 uV
    abstol(I) = 1 pA
    temp = 27 C
    tnom = 27 C
    tempeffects = all
    errpreset = conservative
    method = gear2only
    lteratio = 10
    relref = alllocal
    cmin = 0 F
    gmin = 1 pS
    rabsshort = 1 mOhm


Notice from spectre during transient analysis `tran', during Monte Carlo analysis `mc1'.
    Multithreading is disabled due to the size of the design being too small.


Output and IC/nodeset summary:
                 save   8       (current)
                 save   87      (voltage)

    tran: time = 1.281 s     (2.56 %), step = 80.93 ms     (162 m%)
    tran: time = 3.948 s      (7.9 %), step = 338.6 ms     (677 m%)
    tran: time = 6.652 s     (13.3 %), step = 500 ms          (1 %)
    tran: time = 9.152 s     (18.3 %), step = 500 ms          (1 %)
    tran: time = 11.65 s     (23.3 %), step = 500 ms          (1 %)
    tran: time = 14.15 s     (28.3 %), step = 500 ms          (1 %)
    tran: time = 16.65 s     (33.3 %), step = 500 ms          (1 %)
    tran: time = 19.15 s     (38.3 %), step = 500 ms          (1 %)
    tran: time = 21.65 s     (43.3 %), step = 500 ms          (1 %)
    tran: time = 24.15 s     (48.3 %), step = 500 ms          (1 %)
    tran: time = 26.65 s     (53.3 %), step = 500 ms          (1 %)
    tran: time = 29.15 s     (58.3 %), step = 500 ms          (1 %)
    tran: time = 31.65 s     (63.3 %), step = 500 ms          (1 %)
    tran: time = 34.15 s     (68.3 %), step = 500 ms          (1 %)
    tran: time = 36.65 s     (73.3 %), step = 500 ms          (1 %)
    tran: time = 39.15 s     (78.3 %), step = 500 ms          (1 %)
    tran: time = 41.65 s     (83.3 %), step = 500 ms          (1 %)
    tran: time = 44.15 s     (88.3 %), step = 500 ms          (1 %)
    tran: time = 46.65 s     (93.3 %), step = 500 ms          (1 %)
    tran: time = 49.15 s     (98.3 %), step = 500 ms          (1 %)
Number of accepted tran steps =             749

Maximum value achieved for any signal of each quantity: 
V: V(vout) = 3.3 V
I: I(V8:p) = 6.237 uA

~~~~~~~~~~~~~~~~~~~~~~~~~~~~~~~~~
Post-Transient Simulation Summary
~~~~~~~~~~~~~~~~~~~~~~~~~~~~~~~~~
   -   To further speed up simulation, consider
          add ++aps on command line
   -   Non-default settings that could significantly slow down simulation
          errpreset = conservative, default moderate
          reltol = 10e-06, default 100e-06 (conservative)
~~~~~~~~~~~~~~~~~~~~~~~~~~~~~~~~~


During simulation, the CPU load for active processors is :
         0 (11.2 %)      1 (52.2 %)      2 (31.0 %)      3 (30.8 %)
         4 (34.4 %)      5 (64.4 %)      6 (7.0 %)       7 (100.0 %)
         8 (5.3 %)       9 (42.8 %)     10 (64.7 %)     11 (6.2 %)
        12 (27.3 %)     13 (45.7 %)     14 (38.5 %)     15 (22.8 %)
        16 (32.6 %)     17 (76.6 %)     18 (36.0 %)     19 (29.0 %)
        20 (33.3 %)     21 (24.1 %)     22 (41.3 %)     23 (42.8 %)
        24 (11.9 %)     25 (84.5 %)     26 (13.8 %)     27 (38.7 %)
        28 (74.4 %)     29 (76.1 %)     30 (31.7 %)     31 (12.4 %)
        32 (94.5 %)     33 (79.3 %)     34 (4.9 %)      35 (9.4 %)
        36 (100.0 %)    37 (25.3 %)     38 (18.4 %)     39 (21.5 %)
        40 (100.0 %)    41 (22.2 %)     42 (12.7 %)     43 (47.4 %)
        44 (56.6 %)     45 (8.3 %)      46 (25.0 %)     47 (24.0 %)
        Total: 1893.0%
Initial condition solution time: CPU = 2.324 ms, elapsed = 2.33507 ms.
Intrinsic tran analysis time:    CPU = 394.5 ms, elapsed = 395.566 ms.
Total time required for tran analysis `tran': CPU = 398.958 ms, elapsed = 400.584 ms, util. = 99.6%.
Time accumulated: CPU = 2.01281 s, elapsed = 2.92788 s.
Peak resident memory used = 213 Mbytes.


Notice from spectre during transient analysis `tran', during Monte Carlo analysis `mc1'.
    34 warnings suppressed.

finalTimeOP: writing operating point information to rawfile.

Opening the PSF file ../psf/mc1_separate/053/finalTimeOP.info ...
modelParameter: writing model parameter values to rawfile.

Opening the PSF file ../psf/mc1_separate/053/modelParameter.info ...
element: writing instance parameter values to rawfile.

Opening the PSF file ../psf/mc1_separate/053/element.info ...
outputParameter: writing output parameter values to rawfile.

Opening the PSF file ../psf/mc1_separate/053/outputParameter.info ...
designParamVals: writing netlist parameters to rawfile.

Opening the PSFASCII file ../psf/mc1_separate/053/designParamVals.info ...
primitives: writing primitives to rawfile.

Opening the PSFASCII file ../psf/mc1_separate/053/primitives.info.primitives ...
subckts: writing subcircuits to rawfile.

Opening the PSFASCII file ../psf/mc1_separate/053/subckts.info.subckts ...
    mc1: iteration = 53          (8.33 %), step = 1            (4.17 %)
54  12.50% 

*****************************************************************************************
* 
* INFO: AMS_processOption = C35B4C3
* 
* INFO: Valid Modules  PIP VG5 HIRES
* 
*****************************************************************************************


Notice from spectre during Monte Carlo analysis `mc1'.
    V8: `period' has the unusually large value of 100 s.


***********************************************
Transient Analysis `tran': time = (0 s -> 50 s)
***********************************************

Opening the PSF file ../psf/mc1_separate/054/tran.tran.tran ...

Warning from spectre during check, during IC analysis, during transient analysis `tran', during Monte Carlo analysis `mc1'.
    WARNING (CMI-2943): Parameter checks have been ignored because the valid value for parameter 'trise' could not be found in 'C1'.
    WARNING (CMI-2943): Parameter checks have been ignored because the valid value for parameter 'trise' could not be found in 'I0.R2.CM'.
    WARNING (CMI-2943): Parameter checks have been ignored because the valid value for parameter 'trise' could not be found in 'I0.R2.CS1'.
    WARNING (CMI-2943): Parameter checks have been ignored because the valid value for parameter 'trise' could not be found in 'I0.R2.CS0'.
    WARNING (CMI-2943): Parameter checks have been ignored because the valid value for parameter 'trise' could not be found in 'I0.C8<3>.C1'.
        Further occurrences of this warning will be suppressed.

Convergence achieved in 12 iterations.
DC simulation time: CPU = 2.337 ms, elapsed = 2.33698 ms.
Important parameter values:
    start = 0 s
    outputstart = 0 s
    stop = 50 s
    step = 50 ms
    maxstep = 500 ms
    ic = all
    useprevic = no
    skipdc = no
    reltol = 10e-06
    abstol(V) = 1 uV
    abstol(I) = 1 pA
    temp = 27 C
    tnom = 27 C
    tempeffects = all
    errpreset = conservative
    method = gear2only
    lteratio = 10
    relref = alllocal
    cmin = 0 F
    gmin = 1 pS
    rabsshort = 1 mOhm


Notice from spectre during transient analysis `tran', during Monte Carlo analysis `mc1'.
    Multithreading is disabled due to the size of the design being too small.


Output and IC/nodeset summary:
                 save   8       (current)
                 save   87      (voltage)

    tran: time = 1.281 s     (2.56 %), step = 35.56 ms    (71.1 m%)
    tran: time = 3.891 s     (7.78 %), step = 248 ms       (496 m%)
    tran: time = 6.448 s     (12.9 %), step = 456.8 ms     (914 m%)
    tran: time = 8.933 s     (17.9 %), step = 500 ms          (1 %)
    tran: time = 11.43 s     (22.9 %), step = 500 ms          (1 %)
    tran: time = 13.93 s     (27.9 %), step = 500 ms          (1 %)
    tran: time = 16.43 s     (32.9 %), step = 500 ms          (1 %)
    tran: time = 18.93 s     (37.9 %), step = 500 ms          (1 %)
    tran: time = 21.43 s     (42.9 %), step = 500 ms          (1 %)
    tran: time = 23.93 s     (47.9 %), step = 500 ms          (1 %)
    tran: time = 26.43 s     (52.9 %), step = 500 ms          (1 %)
    tran: time = 28.93 s     (57.9 %), step = 500 ms          (1 %)
    tran: time = 31.43 s     (62.9 %), step = 500 ms          (1 %)
    tran: time = 33.93 s     (67.9 %), step = 500 ms          (1 %)
    tran: time = 36.43 s     (72.9 %), step = 500 ms          (1 %)
    tran: time = 38.93 s     (77.9 %), step = 500 ms          (1 %)
    tran: time = 41.43 s     (82.9 %), step = 500 ms          (1 %)
    tran: time = 43.93 s     (87.9 %), step = 500 ms          (1 %)
    tran: time = 46.43 s     (92.9 %), step = 500 ms          (1 %)
    tran: time = 48.93 s     (97.9 %), step = 500 ms          (1 %)
Number of accepted tran steps =             732

Maximum value achieved for any signal of each quantity: 
V: V(S<0>) = 3.3 V
I: I(V8:p) = 6.408 uA

~~~~~~~~~~~~~~~~~~~~~~~~~~~~~~~~~
Post-Transient Simulation Summary
~~~~~~~~~~~~~~~~~~~~~~~~~~~~~~~~~
   -   To further speed up simulation, consider
          add ++aps on command line
   -   Non-default settings that could significantly slow down simulation
          errpreset = conservative, default moderate
          reltol = 10e-06, default 100e-06 (conservative)
~~~~~~~~~~~~~~~~~~~~~~~~~~~~~~~~~


During simulation, the CPU load for active processors is :
         0 (11.3 %)      1 (58.4 %)      2 (40.6 %)      3 (27.1 %)
         4 (42.5 %)      5 (69.6 %)      6 (7.3 %)       7 (100.0 %)
         8 (5.8 %)       9 (37.1 %)     10 (56.0 %)     11 (6.0 %)
        12 (27.7 %)     13 (51.8 %)     14 (46.5 %)     15 (33.9 %)
        16 (29.0 %)     17 (67.7 %)     18 (45.3 %)     19 (27.6 %)
        20 (42.5 %)     21 (21.9 %)     22 (37.1 %)     23 (37.5 %)
        24 (11.2 %)     25 (74.1 %)     26 (13.4 %)     27 (33.4 %)
        28 (67.2 %)     29 (79.2 %)     30 (32.4 %)     31 (12.2 %)
        32 (89.4 %)     33 (82.3 %)     34 (6.1 %)      35 (19.3 %)
        36 (100.0 %)    37 (34.5 %)     38 (16.1 %)     39 (32.9 %)
        40 (100.0 %)    41 (22.2 %)     42 (11.6 %)     43 (42.0 %)
        44 (49.0 %)     45 (7.7 %)      46 (35.1 %)     47 (23.5 %)
        Total: 1925.1%
Initial condition solution time: CPU = 2.374 ms, elapsed = 2.37608 ms.
Intrinsic tran analysis time:    CPU = 397.298 ms, elapsed = 398.778 ms.
Total time required for tran analysis `tran': CPU = 402.042 ms, elapsed = 404.059 ms, util. = 99.5%.
Time accumulated: CPU = 2.45687 s, elapsed = 3.38514 s.
Peak resident memory used = 213 Mbytes.


Notice from spectre during transient analysis `tran', during Monte Carlo analysis `mc1'.
    34 warnings suppressed.

finalTimeOP: writing operating point information to rawfile.

Opening the PSF file ../psf/mc1_separate/054/finalTimeOP.info ...
modelParameter: writing model parameter values to rawfile.

Opening the PSF file ../psf/mc1_separate/054/modelParameter.info ...
element: writing instance parameter values to rawfile.

Opening the PSF file ../psf/mc1_separate/054/element.info ...
outputParameter: writing output parameter values to rawfile.

Opening the PSF file ../psf/mc1_separate/054/outputParameter.info ...
designParamVals: writing netlist parameters to rawfile.

Opening the PSFASCII file ../psf/mc1_separate/054/designParamVals.info ...
primitives: writing primitives to rawfile.

Opening the PSFASCII file ../psf/mc1_separate/054/primitives.info.primitives ...
subckts: writing subcircuits to rawfile.

Opening the PSFASCII file ../psf/mc1_separate/054/subckts.info.subckts ...
    mc1: iteration = 54          (12.5 %), step = 1            (4.17 %)
55  16.67% 

*****************************************************************************************
* 
* INFO: AMS_processOption = C35B4C3
* 
* INFO: Valid Modules  PIP VG5 HIRES
* 
*****************************************************************************************


Notice from spectre during Monte Carlo analysis `mc1'.
    V8: `period' has the unusually large value of 100 s.


***********************************************
Transient Analysis `tran': time = (0 s -> 50 s)
***********************************************

Opening the PSF file ../psf/mc1_separate/055/tran.tran.tran ...

Warning from spectre during check, during IC analysis, during transient analysis `tran', during Monte Carlo analysis `mc1'.
    WARNING (CMI-2943): Parameter checks have been ignored because the valid value for parameter 'trise' could not be found in 'C1'.
    WARNING (CMI-2943): Parameter checks have been ignored because the valid value for parameter 'trise' could not be found in 'I0.R2.CM'.
    WARNING (CMI-2943): Parameter checks have been ignored because the valid value for parameter 'trise' could not be found in 'I0.R2.CS1'.
    WARNING (CMI-2943): Parameter checks have been ignored because the valid value for parameter 'trise' could not be found in 'I0.R2.CS0'.
    WARNING (CMI-2943): Parameter checks have been ignored because the valid value for parameter 'trise' could not be found in 'I0.C8<3>.C1'.
        Further occurrences of this warning will be suppressed.

Convergence achieved in 12 iterations.
DC simulation time: CPU = 2.364 ms, elapsed = 2.36416 ms.
Important parameter values:
    start = 0 s
    outputstart = 0 s
    stop = 50 s
    step = 50 ms
    maxstep = 500 ms
    ic = all
    useprevic = no
    skipdc = no
    reltol = 10e-06
    abstol(V) = 1 uV
    abstol(I) = 1 pA
    temp = 27 C
    tnom = 27 C
    tempeffects = all
    errpreset = conservative
    method = gear2only
    lteratio = 10
    relref = alllocal
    cmin = 0 F
    gmin = 1 pS
    rabsshort = 1 mOhm


Notice from spectre during transient analysis `tran', during Monte Carlo analysis `mc1'.
    Multithreading is disabled due to the size of the design being too small.


Output and IC/nodeset summary:
                 save   8       (current)
                 save   87      (voltage)

    tran: time = 1.291 s     (2.58 %), step = 113.5 ms     (227 m%)
    tran: time = 4.093 s     (8.19 %), step = 377.9 ms     (756 m%)
    tran: time = 6.442 s     (12.9 %), step = 500 ms          (1 %)
    tran: time = 8.942 s     (17.9 %), step = 500 ms          (1 %)
    tran: time = 11.44 s     (22.9 %), step = 500 ms          (1 %)
    tran: time = 13.94 s     (27.9 %), step = 500 ms          (1 %)
    tran: time = 16.44 s     (32.9 %), step = 500 ms          (1 %)
    tran: time = 18.94 s     (37.9 %), step = 500 ms          (1 %)
    tran: time = 21.44 s     (42.9 %), step = 500 ms          (1 %)
    tran: time = 23.94 s     (47.9 %), step = 500 ms          (1 %)
    tran: time = 26.44 s     (52.9 %), step = 500 ms          (1 %)
    tran: time = 28.94 s     (57.9 %), step = 500 ms          (1 %)
    tran: time = 31.44 s     (62.9 %), step = 500 ms          (1 %)
    tran: time = 33.94 s     (67.9 %), step = 500 ms          (1 %)
    tran: time = 36.44 s     (72.9 %), step = 500 ms          (1 %)
    tran: time = 38.94 s     (77.9 %), step = 500 ms          (1 %)
    tran: time = 41.44 s     (82.9 %), step = 500 ms          (1 %)
    tran: time = 43.94 s     (87.9 %), step = 500 ms          (1 %)
    tran: time = 46.44 s     (92.9 %), step = 500 ms          (1 %)
    tran: time = 48.94 s     (97.9 %), step = 500 ms          (1 %)
Number of accepted tran steps =             737

Maximum value achieved for any signal of each quantity: 
V: V(S<0>) = 3.3 V
I: I(V8:p) = 6.532 uA

~~~~~~~~~~~~~~~~~~~~~~~~~~~~~~~~~
Post-Transient Simulation Summary
~~~~~~~~~~~~~~~~~~~~~~~~~~~~~~~~~
   -   To further speed up simulation, consider
          add ++aps on command line
   -   Non-default settings that could significantly slow down simulation
          errpreset = conservative, default moderate
          reltol = 10e-06, default 100e-06 (conservative)
~~~~~~~~~~~~~~~~~~~~~~~~~~~~~~~~~


During simulation, the CPU load for active processors is :
         0 (11.8 %)      1 (63.6 %)      2 (47.5 %)      3 (24.7 %)
         4 (49.6 %)      5 (72.2 %)      6 (7.2 %)       7 (100.0 %)
         8 (5.6 %)       9 (34.1 %)     10 (50.7 %)     11 (8.0 %)
        12 (26.3 %)     13 (57.4 %)     14 (52.9 %)     15 (32.8 %)
        16 (27.3 %)     17 (61.7 %)     18 (50.7 %)     19 (32.9 %)
        20 (45.0 %)     21 (22.8 %)     22 (37.5 %)     23 (34.2 %)
        24 (10.9 %)     25 (75.6 %)     26 (12.3 %)     27 (30.0 %)
        28 (59.7 %)     29 (81.5 %)     30 (40.8 %)     31 (13.2 %)
        32 (79.9 %)     33 (84.5 %)     34 (6.2 %)      35 (28.8 %)
        36 (100.0 %)    37 (35.3 %)     38 (15.1 %)     39 (41.3 %)
        40 (100.0 %)    41 (23.3 %)     42 (18.6 %)     43 (39.8 %)
        44 (44.8 %)     45 (7.1 %)      46 (43.0 %)     47 (22.6 %)
        Total: 1971.0%
Initial condition solution time: CPU = 2.416 ms, elapsed = 2.41804 ms.
Intrinsic tran analysis time:    CPU = 395.494 ms, elapsed = 396.641 ms.
Total time required for tran analysis `tran': CPU = 400.361 ms, elapsed = 401.933 ms, util. = 99.6%.
Time accumulated: CPU = 2.8977 s, elapsed = 3.83656 s.
Peak resident memory used = 213 Mbytes.


Notice from spectre during transient analysis `tran', during Monte Carlo analysis `mc1'.
    34 warnings suppressed.

finalTimeOP: writing operating point information to rawfile.

Opening the PSF file ../psf/mc1_separate/055/finalTimeOP.info ...
modelParameter: writing model parameter values to rawfile.

Opening the PSF file ../psf/mc1_separate/055/modelParameter.info ...
element: writing instance parameter values to rawfile.

Opening the PSF file ../psf/mc1_separate/055/element.info ...
outputParameter: writing output parameter values to rawfile.

Opening the PSF file ../psf/mc1_separate/055/outputParameter.info ...
designParamVals: writing netlist parameters to rawfile.

Opening the PSFASCII file ../psf/mc1_separate/055/designParamVals.info ...
primitives: writing primitives to rawfile.

Opening the PSFASCII file ../psf/mc1_separate/055/primitives.info.primitives ...
subckts: writing subcircuits to rawfile.

Opening the PSFASCII file ../psf/mc1_separate/055/subckts.info.subckts ...
    mc1: iteration = 55          (16.7 %), step = 1            (4.17 %)
56  20.83% 

*****************************************************************************************
* 
* INFO: AMS_processOption = C35B4C3
* 
* INFO: Valid Modules  PIP VG5 HIRES
* 
*****************************************************************************************


Notice from spectre during Monte Carlo analysis `mc1'.
    V8: `period' has the unusually large value of 100 s.


***********************************************
Transient Analysis `tran': time = (0 s -> 50 s)
***********************************************

Opening the PSF file ../psf/mc1_separate/056/tran.tran.tran ...

Warning from spectre during check, during IC analysis, during transient analysis `tran', during Monte Carlo analysis `mc1'.
    WARNING (CMI-2943): Parameter checks have been ignored because the valid value for parameter 'trise' could not be found in 'C1'.
    WARNING (CMI-2943): Parameter checks have been ignored because the valid value for parameter 'trise' could not be found in 'I0.R2.CM'.
    WARNING (CMI-2943): Parameter checks have been ignored because the valid value for parameter 'trise' could not be found in 'I0.R2.CS1'.
    WARNING (CMI-2943): Parameter checks have been ignored because the valid value for parameter 'trise' could not be found in 'I0.R2.CS0'.
    WARNING (CMI-2943): Parameter checks have been ignored because the valid value for parameter 'trise' could not be found in 'I0.C8<3>.C1'.
        Further occurrences of this warning will be suppressed.

Convergence achieved in 12 iterations.
DC simulation time: CPU = 2.241 ms, elapsed = 2.2409 ms.
Important parameter values:
    start = 0 s
    outputstart = 0 s
    stop = 50 s
    step = 50 ms
    maxstep = 500 ms
    ic = all
    useprevic = no
    skipdc = no
    reltol = 10e-06
    abstol(V) = 1 uV
    abstol(I) = 1 pA
    temp = 27 C
    tnom = 27 C
    tempeffects = all
    errpreset = conservative
    method = gear2only
    lteratio = 10
    relref = alllocal
    cmin = 0 F
    gmin = 1 pS
    rabsshort = 1 mOhm


Notice from spectre during transient analysis `tran', during Monte Carlo analysis `mc1'.
    Multithreading is disabled due to the size of the design being too small.


Output and IC/nodeset summary:
                 save   8       (current)
                 save   87      (voltage)

    tran: time = 1.355 s     (2.71 %), step = 119.9 ms     (240 m%)
    tran: time = 3.906 s     (7.81 %), step = 361.5 ms     (723 m%)
    tran: time = 6.705 s     (13.4 %), step = 500 ms          (1 %)
    tran: time = 9.205 s     (18.4 %), step = 500 ms          (1 %)
    tran: time = 11.71 s     (23.4 %), step = 500 ms          (1 %)
    tran: time = 14.21 s     (28.4 %), step = 500 ms          (1 %)
    tran: time = 16.71 s     (33.4 %), step = 500 ms          (1 %)
    tran: time = 19.21 s     (38.4 %), step = 500 ms          (1 %)
    tran: time = 21.71 s     (43.4 %), step = 500 ms          (1 %)
    tran: time = 24.21 s     (48.4 %), step = 500 ms          (1 %)
    tran: time = 26.71 s     (53.4 %), step = 500 ms          (1 %)
    tran: time = 29.21 s     (58.4 %), step = 500 ms          (1 %)
    tran: time = 31.71 s     (63.4 %), step = 500 ms          (1 %)
    tran: time = 34.21 s     (68.4 %), step = 500 ms          (1 %)
    tran: time = 36.71 s     (73.4 %), step = 500 ms          (1 %)
    tran: time = 39.21 s     (78.4 %), step = 500 ms          (1 %)
    tran: time = 41.71 s     (83.4 %), step = 500 ms          (1 %)
    tran: time = 44.21 s     (88.4 %), step = 500 ms          (1 %)
    tran: time = 46.71 s     (93.4 %), step = 500 ms          (1 %)
    tran: time = 49.21 s     (98.4 %), step = 500 ms          (1 %)
Number of accepted tran steps =             746

Maximum value achieved for any signal of each quantity: 
V: V(vout) = 3.3 V
I: I(V8:p) = 6.23 uA

~~~~~~~~~~~~~~~~~~~~~~~~~~~~~~~~~
Post-Transient Simulation Summary
~~~~~~~~~~~~~~~~~~~~~~~~~~~~~~~~~
   -   To further speed up simulation, consider
          add ++aps on command line
   -   Non-default settings that could significantly slow down simulation
          errpreset = conservative, default moderate
          reltol = 10e-06, default 100e-06 (conservative)
~~~~~~~~~~~~~~~~~~~~~~~~~~~~~~~~~


During simulation, the CPU load for active processors is :
         0 (12.4 %)      1 (67.7 %)      2 (45.1 %)      3 (22.7 %)
         4 (54.4 %)      5 (74.7 %)      6 (7.9 %)       7 (100.0 %)
         8 (7.0 %)       9 (39.7 %)     10 (47.5 %)     11 (7.4 %)
        12 (25.6 %)     13 (52.1 %)     14 (57.9 %)     15 (29.7 %)
        16 (25.3 %)     17 (56.1 %)     18 (46.3 %)     19 (39.8 %)
        20 (51.2 %)     21 (21.7 %)     22 (44.5 %)     23 (37.2 %)
        24 (21.1 %)     25 (78.1 %)     26 (16.4 %)     27 (30.7 %)
        28 (53.9 %)     29 (73.3 %)     30 (37.2 %)     31 (22.8 %)
        32 (72.9 %)     33 (86.3 %)     34 (7.0 %)      35 (36.0 %)
        36 (100.0 %)    37 (33.5 %)     38 (15.1 %)     39 (41.0 %)
        40 (100.0 %)    41 (22.5 %)     42 (28.0 %)     43 (37.6 %)
        44 (47.3 %)     45 (8.1 %)      46 (49.0 %)     47 (21.1 %)
        Total: 2013.0%
Initial condition solution time: CPU = 2.277 ms, elapsed = 2.27809 ms.
Intrinsic tran analysis time:    CPU = 405.542 ms, elapsed = 406.603 ms.
Total time required for tran analysis `tran': CPU = 410.152 ms, elapsed = 411.857 ms, util. = 99.6%.
Time accumulated: CPU = 3.34758 s, elapsed = 4.29863 s.
Peak resident memory used = 213 Mbytes.


Notice from spectre during transient analysis `tran', during Monte Carlo analysis `mc1'.
    34 warnings suppressed.

finalTimeOP: writing operating point information to rawfile.

Opening the PSF file ../psf/mc1_separate/056/finalTimeOP.info ...
modelParameter: writing model parameter values to rawfile.

Opening the PSF file ../psf/mc1_separate/056/modelParameter.info ...
element: writing instance parameter values to rawfile.

Opening the PSF file ../psf/mc1_separate/056/element.info ...
outputParameter: writing output parameter values to rawfile.

Opening the PSF file ../psf/mc1_separate/056/outputParameter.info ...
designParamVals: writing netlist parameters to rawfile.

Opening the PSFASCII file ../psf/mc1_separate/056/designParamVals.info ...
primitives: writing primitives to rawfile.

Opening the PSFASCII file ../psf/mc1_separate/056/primitives.info.primitives ...
subckts: writing subcircuits to rawfile.

Opening the PSFASCII file ../psf/mc1_separate/056/subckts.info.subckts ...
    mc1: iteration = 56          (20.8 %), step = 1            (4.17 %)
57  25.00% 

*****************************************************************************************
* 
* INFO: AMS_processOption = C35B4C3
* 
* INFO: Valid Modules  PIP VG5 HIRES
* 
*****************************************************************************************


Notice from spectre during Monte Carlo analysis `mc1'.
    V8: `period' has the unusually large value of 100 s.


***********************************************
Transient Analysis `tran': time = (0 s -> 50 s)
***********************************************

Opening the PSF file ../psf/mc1_separate/057/tran.tran.tran ...

Warning from spectre during check, during IC analysis, during transient analysis `tran', during Monte Carlo analysis `mc1'.
    WARNING (CMI-2943): Parameter checks have been ignored because the valid value for parameter 'trise' could not be found in 'C1'.
    WARNING (CMI-2943): Parameter checks have been ignored because the valid value for parameter 'trise' could not be found in 'I0.R2.CM'.
    WARNING (CMI-2943): Parameter checks have been ignored because the valid value for parameter 'trise' could not be found in 'I0.R2.CS1'.
    WARNING (CMI-2943): Parameter checks have been ignored because the valid value for parameter 'trise' could not be found in 'I0.R2.CS0'.
    WARNING (CMI-2943): Parameter checks have been ignored because the valid value for parameter 'trise' could not be found in 'I0.C8<3>.C1'.
        Further occurrences of this warning will be suppressed.

Convergence achieved in 12 iterations.
DC simulation time: CPU = 2.312 ms, elapsed = 2.32506 ms.
Important parameter values:
    start = 0 s
    outputstart = 0 s
    stop = 50 s
    step = 50 ms
    maxstep = 500 ms
    ic = all
    useprevic = no
    skipdc = no
    reltol = 10e-06
    abstol(V) = 1 uV
    abstol(I) = 1 pA
    temp = 27 C
    tnom = 27 C
    tempeffects = all
    errpreset = conservative
    method = gear2only
    lteratio = 10
    relref = alllocal
    cmin = 0 F
    gmin = 1 pS
    rabsshort = 1 mOhm


Notice from spectre during transient analysis `tran', during Monte Carlo analysis `mc1'.
    Multithreading is disabled due to the size of the design being too small.


Output and IC/nodeset summary:
                 save   8       (current)
                 save   87      (voltage)

    tran: time = 1.283 s     (2.57 %), step = 37.92 ms    (75.8 m%)
    tran: time = 3.984 s     (7.97 %), step = 303.4 ms     (607 m%)
    tran: time = 6.455 s     (12.9 %), step = 489.9 ms     (980 m%)
    tran: time = 8.955 s     (17.9 %), step = 500 ms          (1 %)
    tran: time = 11.45 s     (22.9 %), step = 500 ms          (1 %)
    tran: time = 13.95 s     (27.9 %), step = 500 ms          (1 %)
    tran: time = 16.45 s     (32.9 %), step = 500 ms          (1 %)
    tran: time = 18.95 s     (37.9 %), step = 500 ms          (1 %)
    tran: time = 21.45 s     (42.9 %), step = 500 ms          (1 %)
    tran: time = 23.95 s     (47.9 %), step = 500 ms          (1 %)
    tran: time = 26.45 s     (52.9 %), step = 500 ms          (1 %)
    tran: time = 28.95 s     (57.9 %), step = 500 ms          (1 %)
    tran: time = 31.45 s     (62.9 %), step = 500 ms          (1 %)
    tran: time = 33.95 s     (67.9 %), step = 500 ms          (1 %)
    tran: time = 36.45 s     (72.9 %), step = 500 ms          (1 %)
    tran: time = 38.95 s     (77.9 %), step = 500 ms          (1 %)
    tran: time = 41.45 s     (82.9 %), step = 500 ms          (1 %)
    tran: time = 43.95 s     (87.9 %), step = 500 ms          (1 %)
    tran: time = 46.45 s     (92.9 %), step = 500 ms          (1 %)
    tran: time = 48.95 s     (97.9 %), step = 500 ms          (1 %)
Number of accepted tran steps =             734

Maximum value achieved for any signal of each quantity: 
V: V(vout) = 3.3 V
I: I(V8:p) = 6.505 uA

~~~~~~~~~~~~~~~~~~~~~~~~~~~~~~~~~
Post-Transient Simulation Summary
~~~~~~~~~~~~~~~~~~~~~~~~~~~~~~~~~
   -   To further speed up simulation, consider
          add ++aps on command line
   -   Non-default settings that could significantly slow down simulation
          errpreset = conservative, default moderate
          reltol = 10e-06, default 100e-06 (conservative)
~~~~~~~~~~~~~~~~~~~~~~~~~~~~~~~~~


During simulation, the CPU load for active processors is :
         0 (12.2 %)      1 (70.9 %)      2 (41.2 %)      3 (20.6 %)
         4 (58.9 %)      5 (77.0 %)      6 (7.5 %)       7 (100.0 %)
         8 (6.3 %)       9 (45.3 %)     10 (43.2 %)     11 (6.9 %)
        12 (24.9 %)     13 (47.3 %)     14 (52.6 %)     15 (36.0 %)
        16 (25.1 %)     17 (51.0 %)     18 (51.2 %)     19 (44.4 %)
        20 (54.4 %)     21 (20.0 %)     22 (49.9 %)     23 (34.4 %)
        24 (29.0 %)     25 (79.6 %)     26 (23.5 %)     27 (31.4 %)
        28 (50.6 %)     29 (66.5 %)     30 (33.8 %)     31 (30.5 %)
        32 (66.1 %)     33 (87.7 %)     34 (6.6 %)      35 (38.0 %)
        36 (100.0 %)    37 (30.9 %)     38 (22.9 %)     39 (37.7 %)
        40 (100.0 %)    41 (22.5 %)     42 (34.6 %)     43 (35.4 %)
        44 (48.3 %)     45 (8.0 %)      46 (49.9 %)     47 (20.4 %)
        Total: 2035.1%
Initial condition solution time: CPU = 2.354 ms, elapsed = 2.36702 ms.
Intrinsic tran analysis time:    CPU = 395.864 ms, elapsed = 396.981 ms.
Total time required for tran analysis `tran': CPU = 400.512 ms, elapsed = 402.187 ms, util. = 99.6%.
Time accumulated: CPU = 3.79099 s, elapsed = 4.75297 s.
Peak resident memory used = 213 Mbytes.


Notice from spectre during transient analysis `tran', during Monte Carlo analysis `mc1'.
    34 warnings suppressed.

finalTimeOP: writing operating point information to rawfile.

Opening the PSF file ../psf/mc1_separate/057/finalTimeOP.info ...
modelParameter: writing model parameter values to rawfile.

Opening the PSF file ../psf/mc1_separate/057/modelParameter.info ...
element: writing instance parameter values to rawfile.

Opening the PSF file ../psf/mc1_separate/057/element.info ...
outputParameter: writing output parameter values to rawfile.

Opening the PSF file ../psf/mc1_separate/057/outputParameter.info ...
designParamVals: writing netlist parameters to rawfile.

Opening the PSFASCII file ../psf/mc1_separate/057/designParamVals.info ...
primitives: writing primitives to rawfile.

Opening the PSFASCII file ../psf/mc1_separate/057/primitives.info.primitives ...
subckts: writing subcircuits to rawfile.

Opening the PSFASCII file ../psf/mc1_separate/057/subckts.info.subckts ...
    mc1: iteration = 57            (25 %), step = 1            (4.17 %)
58  29.17% 

*****************************************************************************************
* 
* INFO: AMS_processOption = C35B4C3
* 
* INFO: Valid Modules  PIP VG5 HIRES
* 
*****************************************************************************************


Notice from spectre during Monte Carlo analysis `mc1'.
    V8: `period' has the unusually large value of 100 s.


***********************************************
Transient Analysis `tran': time = (0 s -> 50 s)
***********************************************

Opening the PSF file ../psf/mc1_separate/058/tran.tran.tran ...

Warning from spectre during check, during IC analysis, during transient analysis `tran', during Monte Carlo analysis `mc1'.
    WARNING (CMI-2943): Parameter checks have been ignored because the valid value for parameter 'trise' could not be found in 'C1'.
    WARNING (CMI-2943): Parameter checks have been ignored because the valid value for parameter 'trise' could not be found in 'I0.R2.CM'.
    WARNING (CMI-2943): Parameter checks have been ignored because the valid value for parameter 'trise' could not be found in 'I0.R2.CS1'.
    WARNING (CMI-2943): Parameter checks have been ignored because the valid value for parameter 'trise' could not be found in 'I0.R2.CS0'.
    WARNING (CMI-2943): Parameter checks have been ignored because the valid value for parameter 'trise' could not be found in 'I0.C8<3>.C1'.
        Further occurrences of this warning will be suppressed.

Convergence achieved in 12 iterations.
DC simulation time: CPU = 2.241 ms, elapsed = 2.2409 ms.
Important parameter values:
    start = 0 s
    outputstart = 0 s
    stop = 50 s
    step = 50 ms
    maxstep = 500 ms
    ic = all
    useprevic = no
    skipdc = no
    reltol = 10e-06
    abstol(V) = 1 uV
    abstol(I) = 1 pA
    temp = 27 C
    tnom = 27 C
    tempeffects = all
    errpreset = conservative
    method = gear2only
    lteratio = 10
    relref = alllocal
    cmin = 0 F
    gmin = 1 pS
    rabsshort = 1 mOhm


Notice from spectre during transient analysis `tran', during Monte Carlo analysis `mc1'.
    Multithreading is disabled due to the size of the design being too small.


Output and IC/nodeset summary:
                 save   8       (current)
                 save   87      (voltage)

    tran: time = 1.292 s     (2.58 %), step = 123.6 ms     (247 m%)
    tran: time = 3.912 s     (7.82 %), step = 370.7 ms     (741 m%)
    tran: time = 6.748 s     (13.5 %), step = 500 ms          (1 %)
    tran: time = 9.248 s     (18.5 %), step = 500 ms          (1 %)
    tran: time = 11.75 s     (23.5 %), step = 500 ms          (1 %)
    tran: time = 14.25 s     (28.5 %), step = 500 ms          (1 %)
    tran: time = 16.75 s     (33.5 %), step = 500 ms          (1 %)
    tran: time = 19.25 s     (38.5 %), step = 500 ms          (1 %)
    tran: time = 21.75 s     (43.5 %), step = 500 ms          (1 %)
    tran: time = 24.25 s     (48.5 %), step = 500 ms          (1 %)
    tran: time = 26.75 s     (53.5 %), step = 500 ms          (1 %)
    tran: time = 29.25 s     (58.5 %), step = 500 ms          (1 %)
    tran: time = 31.75 s     (63.5 %), step = 500 ms          (1 %)
    tran: time = 34.25 s     (68.5 %), step = 500 ms          (1 %)
    tran: time = 36.75 s     (73.5 %), step = 500 ms          (1 %)
    tran: time = 39.25 s     (78.5 %), step = 500 ms          (1 %)
    tran: time = 41.75 s     (83.5 %), step = 500 ms          (1 %)
    tran: time = 44.25 s     (88.5 %), step = 500 ms          (1 %)
    tran: time = 46.75 s     (93.5 %), step = 500 ms          (1 %)
    tran: time = 49.25 s     (98.5 %), step = 500 ms          (1 %)
Number of accepted tran steps =             742

Maximum value achieved for any signal of each quantity: 
V: V(vout) = 3.3 V
I: I(V8:p) = 6.265 uA

~~~~~~~~~~~~~~~~~~~~~~~~~~~~~~~~~
Post-Transient Simulation Summary
~~~~~~~~~~~~~~~~~~~~~~~~~~~~~~~~~
   -   To further speed up simulation, consider
          add ++aps on command line
   -   Non-default settings that could significantly slow down simulation
          errpreset = conservative, default moderate
          reltol = 10e-06, default 100e-06 (conservative)
~~~~~~~~~~~~~~~~~~~~~~~~~~~~~~~~~


During simulation, the CPU load for active processors is :
         0 (11.8 %)      1 (73.6 %)      2 (38.0 %)      3 (21.4 %)
         4 (60.3 %)      5 (78.3 %)      6 (7.6 %)       7 (100.0 %)
         8 (13.7 %)      9 (42.9 %)     10 (40.0 %)     11 (7.3 %)
        12 (24.3 %)     13 (45.5 %)     14 (55.2 %)     15 (41.7 %)
        16 (24.9 %)     17 (47.2 %)     18 (55.6 %)     19 (40.9 %)
        20 (52.0 %)     21 (24.0 %)     22 (51.6 %)     23 (34.1 %)
        24 (35.4 %)     25 (81.5 %)     26 (21.7 %)     27 (37.6 %)
        28 (55.1 %)     29 (60.7 %)     30 (31.4 %)     31 (36.6 %)
        32 (60.4 %)     33 (88.8 %)     34 (6.0 %)      35 (34.6 %)
        36 (100.0 %)    37 (29.9 %)     38 (23.3 %)     39 (35.5 %)
        40 (100.0 %)    41 (21.4 %)     42 (40.4 %)     43 (36.4 %)
        44 (49.4 %)     45 (8.6 %)      46 (50.0 %)     47 (24.6 %)
        Total: 2061.2%
Initial condition solution time: CPU = 2.28 ms, elapsed = 2.28095 ms.
Intrinsic tran analysis time:    CPU = 400.089 ms, elapsed = 401.456 ms.
Total time required for tran analysis `tran': CPU = 404.557 ms, elapsed = 406.529 ms, util. = 99.5%.
Time accumulated: CPU = 4.23769 s, elapsed = 5.21151 s.
Peak resident memory used = 213 Mbytes.


Notice from spectre during transient analysis `tran', during Monte Carlo analysis `mc1'.
    34 warnings suppressed.

finalTimeOP: writing operating point information to rawfile.

Opening the PSF file ../psf/mc1_separate/058/finalTimeOP.info ...
modelParameter: writing model parameter values to rawfile.

Opening the PSF file ../psf/mc1_separate/058/modelParameter.info ...
element: writing instance parameter values to rawfile.

Opening the PSF file ../psf/mc1_separate/058/element.info ...
outputParameter: writing output parameter values to rawfile.

Opening the PSF file ../psf/mc1_separate/058/outputParameter.info ...
designParamVals: writing netlist parameters to rawfile.

Opening the PSFASCII file ../psf/mc1_separate/058/designParamVals.info ...
primitives: writing primitives to rawfile.

Opening the PSFASCII file ../psf/mc1_separate/058/primitives.info.primitives ...
subckts: writing subcircuits to rawfile.

Opening the PSFASCII file ../psf/mc1_separate/058/subckts.info.subckts ...
    mc1: iteration = 58          (29.2 %), step = 1            (4.17 %)
59  33.33% 

*****************************************************************************************
* 
* INFO: AMS_processOption = C35B4C3
* 
* INFO: Valid Modules  PIP VG5 HIRES
* 
*****************************************************************************************


Notice from spectre during Monte Carlo analysis `mc1'.
    V8: `period' has the unusually large value of 100 s.


***********************************************
Transient Analysis `tran': time = (0 s -> 50 s)
***********************************************

Opening the PSF file ../psf/mc1_separate/059/tran.tran.tran ...

Warning from spectre during check, during IC analysis, during transient analysis `tran', during Monte Carlo analysis `mc1'.
    WARNING (CMI-2943): Parameter checks have been ignored because the valid value for parameter 'trise' could not be found in 'C1'.
    WARNING (CMI-2943): Parameter checks have been ignored because the valid value for parameter 'trise' could not be found in 'I0.R2.CM'.
    WARNING (CMI-2943): Parameter checks have been ignored because the valid value for parameter 'trise' could not be found in 'I0.R2.CS1'.
    WARNING (CMI-2943): Parameter checks have been ignored because the valid value for parameter 'trise' could not be found in 'I0.R2.CS0'.
    WARNING (CMI-2943): Parameter checks have been ignored because the valid value for parameter 'trise' could not be found in 'I0.C8<3>.C1'.
        Further occurrences of this warning will be suppressed.

Convergence achieved in 12 iterations.
DC simulation time: CPU = 2.234 ms, elapsed = 2.23517 ms.
Important parameter values:
    start = 0 s
    outputstart = 0 s
    stop = 50 s
    step = 50 ms
    maxstep = 500 ms
    ic = all
    useprevic = no
    skipdc = no
    reltol = 10e-06
    abstol(V) = 1 uV
    abstol(I) = 1 pA
    temp = 27 C
    tnom = 27 C
    tempeffects = all
    errpreset = conservative
    method = gear2only
    lteratio = 10
    relref = alllocal
    cmin = 0 F
    gmin = 1 pS
    rabsshort = 1 mOhm


Notice from spectre during transient analysis `tran', during Monte Carlo analysis `mc1'.
    Multithreading is disabled due to the size of the design being too small.


Output and IC/nodeset summary:
                 save   8       (current)
                 save   87      (voltage)

    tran: time = 1.284 s     (2.57 %), step = 86.13 ms     (172 m%)
    tran: time = 3.751 s      (7.5 %), step = 322.4 ms     (645 m%)
    tran: time = 6.345 s     (12.7 %), step = 500 ms          (1 %)
    tran: time = 8.845 s     (17.7 %), step = 500 ms          (1 %)
    tran: time = 11.34 s     (22.7 %), step = 500 ms          (1 %)
    tran: time = 13.84 s     (27.7 %), step = 500 ms          (1 %)
    tran: time = 16.34 s     (32.7 %), step = 500 ms          (1 %)
    tran: time = 18.84 s     (37.7 %), step = 500 ms          (1 %)
    tran: time = 21.34 s     (42.7 %), step = 500 ms          (1 %)
    tran: time = 23.84 s     (47.7 %), step = 500 ms          (1 %)
    tran: time = 26.34 s     (52.7 %), step = 500 ms          (1 %)
    tran: time = 28.84 s     (57.7 %), step = 500 ms          (1 %)
    tran: time = 31.34 s     (62.7 %), step = 500 ms          (1 %)
    tran: time = 33.84 s     (67.7 %), step = 500 ms          (1 %)
    tran: time = 36.34 s     (72.7 %), step = 500 ms          (1 %)
    tran: time = 38.84 s     (77.7 %), step = 500 ms          (1 %)
    tran: time = 41.34 s     (82.7 %), step = 500 ms          (1 %)
    tran: time = 43.84 s     (87.7 %), step = 500 ms          (1 %)
    tran: time = 46.34 s     (92.7 %), step = 500 ms          (1 %)
    tran: time = 48.84 s     (97.7 %), step = 500 ms          (1 %)
Number of accepted tran steps =             735

Maximum value achieved for any signal of each quantity: 
V: V(S<0>) = 3.3 V
I: I(V8:p) = 6.483 uA

~~~~~~~~~~~~~~~~~~~~~~~~~~~~~~~~~
Post-Transient Simulation Summary
~~~~~~~~~~~~~~~~~~~~~~~~~~~~~~~~~
   -   To further speed up simulation, consider
          add ++aps on command line
   -   Non-default settings that could significantly slow down simulation
          errpreset = conservative, default moderate
          reltol = 10e-06, default 100e-06 (conservative)
~~~~~~~~~~~~~~~~~~~~~~~~~~~~~~~~~


During simulation, the CPU load for active processors is :
         0 (11.5 %)      1 (75.8 %)      2 (35.2 %)      3 (27.9 %)
         4 (55.8 %)      5 (80.1 %)      6 (7.6 %)       7 (100.0 %)
         8 (14.2 %)      9 (46.3 %)     10 (36.8 %)     11 (6.9 %)
        12 (23.9 %)     13 (42.3 %)     14 (52.7 %)     15 (39.4 %)
        16 (31.2 %)     17 (49.4 %)     18 (58.5 %)     19 (37.9 %)
        20 (55.7 %)     21 (24.1 %)     22 (49.1 %)     23 (37.9 %)
        24 (40.9 %)     25 (82.3 %)     26 (21.1 %)     27 (36.8 %)
        28 (52.3 %)     29 (57.7 %)     30 (34.8 %)     31 (41.8 %)
        32 (61.2 %)     33 (89.7 %)     34 (6.2 %)      35 (32.4 %)
        36 (100.0 %)    37 (28.9 %)     38 (22.8 %)     39 (35.1 %)
        40 (100.0 %)    41 (20.4 %)     42 (38.0 %)     43 (40.6 %)
        44 (53.5 %)     45 (8.7 %)      46 (46.0 %)     47 (30.9 %)
        Total: 2082.5%
Initial condition solution time: CPU = 2.276 ms, elapsed = 2.27714 ms.
Intrinsic tran analysis time:    CPU = 393.185 ms, elapsed = 394.833 ms.
Total time required for tran analysis `tran': CPU = 398.238 ms, elapsed = 400.517 ms, util. = 99.4%.
Time accumulated: CPU = 4.67793 s, elapsed = 5.6636 s.
Peak resident memory used = 213 Mbytes.


Notice from spectre during transient analysis `tran', during Monte Carlo analysis `mc1'.
    34 warnings suppressed.

finalTimeOP: writing operating point information to rawfile.

Opening the PSF file ../psf/mc1_separate/059/finalTimeOP.info ...
modelParameter: writing model parameter values to rawfile.

Opening the PSF file ../psf/mc1_separate/059/modelParameter.info ...
element: writing instance parameter values to rawfile.

Opening the PSF file ../psf/mc1_separate/059/element.info ...
outputParameter: writing output parameter values to rawfile.

Opening the PSF file ../psf/mc1_separate/059/outputParameter.info ...
designParamVals: writing netlist parameters to rawfile.

Opening the PSFASCII file ../psf/mc1_separate/059/designParamVals.info ...
primitives: writing primitives to rawfile.

Opening the PSFASCII file ../psf/mc1_separate/059/primitives.info.primitives ...
subckts: writing subcircuits to rawfile.

Opening the PSFASCII file ../psf/mc1_separate/059/subckts.info.subckts ...
    mc1: iteration = 59          (33.3 %), step = 1            (4.17 %)
60  37.50% 

*****************************************************************************************
* 
* INFO: AMS_processOption = C35B4C3
* 
* INFO: Valid Modules  PIP VG5 HIRES
* 
*****************************************************************************************


Notice from spectre during Monte Carlo analysis `mc1'.
    V8: `period' has the unusually large value of 100 s.


***********************************************
Transient Analysis `tran': time = (0 s -> 50 s)
***********************************************

Opening the PSF file ../psf/mc1_separate/060/tran.tran.tran ...

Warning from spectre during check, during IC analysis, during transient analysis `tran', during Monte Carlo analysis `mc1'.
    WARNING (CMI-2943): Parameter checks have been ignored because the valid value for parameter 'trise' could not be found in 'C1'.
    WARNING (CMI-2943): Parameter checks have been ignored because the valid value for parameter 'trise' could not be found in 'I0.R2.CM'.
    WARNING (CMI-2943): Parameter checks have been ignored because the valid value for parameter 'trise' could not be found in 'I0.R2.CS1'.
    WARNING (CMI-2943): Parameter checks have been ignored because the valid value for parameter 'trise' could not be found in 'I0.R2.CS0'.
    WARNING (CMI-2943): Parameter checks have been ignored because the valid value for parameter 'trise' could not be found in 'I0.C8<3>.C1'.
        Further occurrences of this warning will be suppressed.

Convergence achieved in 12 iterations.
DC simulation time: CPU = 2.371 ms, elapsed = 2.53296 ms.
Important parameter values:
    start = 0 s
    outputstart = 0 s
    stop = 50 s
    step = 50 ms
    maxstep = 500 ms
    ic = all
    useprevic = no
    skipdc = no
    reltol = 10e-06
    abstol(V) = 1 uV
    abstol(I) = 1 pA
    temp = 27 C
    tnom = 27 C
    tempeffects = all
    errpreset = conservative
    method = gear2only
    lteratio = 10
    relref = alllocal
    cmin = 0 F
    gmin = 1 pS
    rabsshort = 1 mOhm


Notice from spectre during transient analysis `tran', during Monte Carlo analysis `mc1'.
    Multithreading is disabled due to the size of the design being too small.


Output and IC/nodeset summary:
                 save   8       (current)
                 save   87      (voltage)

    tran: time = 1.258 s     (2.52 %), step = 31.43 ms    (62.9 m%)
    tran: time = 3.786 s     (7.57 %), step = 240.9 ms     (482 m%)
    tran: time = 6.338 s     (12.7 %), step = 469.5 ms     (939 m%)
    tran: time = 8.838 s     (17.7 %), step = 500 ms          (1 %)
    tran: time = 11.34 s     (22.7 %), step = 500 ms          (1 %)
    tran: time = 13.84 s     (27.7 %), step = 500 ms          (1 %)
    tran: time = 16.34 s     (32.7 %), step = 500 ms          (1 %)
    tran: time = 18.84 s     (37.7 %), step = 500 ms          (1 %)
    tran: time = 21.34 s     (42.7 %), step = 500 ms          (1 %)
    tran: time = 23.84 s     (47.7 %), step = 500 ms          (1 %)
    tran: time = 26.34 s     (52.7 %), step = 500 ms          (1 %)
    tran: time = 28.84 s     (57.7 %), step = 500 ms          (1 %)
    tran: time = 31.34 s     (62.7 %), step = 500 ms          (1 %)
    tran: time = 33.84 s     (67.7 %), step = 500 ms          (1 %)
    tran: time = 36.34 s     (72.7 %), step = 500 ms          (1 %)
    tran: time = 38.84 s     (77.7 %), step = 500 ms          (1 %)
    tran: time = 41.34 s     (82.7 %), step = 500 ms          (1 %)
    tran: time = 43.84 s     (87.7 %), step = 500 ms          (1 %)
    tran: time = 46.34 s     (92.7 %), step = 500 ms          (1 %)
    tran: time = 48.84 s     (97.7 %), step = 500 ms          (1 %)
Number of accepted tran steps =             744

Maximum value achieved for any signal of each quantity: 
V: V(vout_filt) = 3.3 V
I: I(V8:p) = 6.605 uA

~~~~~~~~~~~~~~~~~~~~~~~~~~~~~~~~~
Post-Transient Simulation Summary
~~~~~~~~~~~~~~~~~~~~~~~~~~~~~~~~~
   -   To further speed up simulation, consider
          add ++aps on command line
   -   Non-default settings that could significantly slow down simulation
          errpreset = conservative, default moderate
          reltol = 10e-06, default 100e-06 (conservative)
~~~~~~~~~~~~~~~~~~~~~~~~~~~~~~~~~


During simulation, the CPU load for active processors is :
         0 (13.6 %)      1 (77.7 %)      2 (37.8 %)      3 (33.5 %)
         4 (52.9 %)      5 (77.8 %)      6 (7.2 %)       7 (100.0 %)
         8 (14.5 %)      9 (45.7 %)     10 (40.2 %)     11 (10.3 %)
        12 (23.9 %)     13 (46.4 %)     14 (49.0 %)     15 (37.1 %)
        16 (35.8 %)     17 (48.5 %)     18 (57.3 %)     19 (38.8 %)
        20 (53.2 %)     21 (22.9 %)     22 (51.9 %)     23 (42.1 %)
        24 (45.6 %)     25 (83.1 %)     26 (19.8 %)     27 (34.5 %)
        28 (52.8 %)     29 (58.9 %)     30 (39.8 %)     31 (46.1 %)
        32 (59.2 %)     33 (90.5 %)     34 (5.9 %)      35 (30.3 %)
        36 (100.0 %)    37 (28.6 %)     38 (22.6 %)     39 (34.0 %)
        40 (100.0 %)    41 (19.5 %)     42 (41.5 %)     43 (39.5 %)
        44 (56.5 %)     45 (8.9 %)      46 (43.6 %)     47 (31.4 %)
        Total: 2110.4%
Initial condition solution time: CPU = 2.408 ms, elapsed = 2.57087 ms.
Intrinsic tran analysis time:    CPU = 399.905 ms, elapsed = 405.784 ms.
Total time required for tran analysis `tran': CPU = 404.759 ms, elapsed = 411.524 ms, util. = 98.4%.
Time accumulated: CPU = 5.12361 s, elapsed = 6.12697 s.
Peak resident memory used = 213 Mbytes.


Notice from spectre during transient analysis `tran', during Monte Carlo analysis `mc1'.
    34 warnings suppressed.

finalTimeOP: writing operating point information to rawfile.

Opening the PSF file ../psf/mc1_separate/060/finalTimeOP.info ...
modelParameter: writing model parameter values to rawfile.

Opening the PSF file ../psf/mc1_separate/060/modelParameter.info ...
element: writing instance parameter values to rawfile.

Opening the PSF file ../psf/mc1_separate/060/element.info ...
outputParameter: writing output parameter values to rawfile.

Opening the PSF file ../psf/mc1_separate/060/outputParameter.info ...
designParamVals: writing netlist parameters to rawfile.

Opening the PSFASCII file ../psf/mc1_separate/060/designParamVals.info ...
primitives: writing primitives to rawfile.

Opening the PSFASCII file ../psf/mc1_separate/060/primitives.info.primitives ...
subckts: writing subcircuits to rawfile.

Opening the PSFASCII file ../psf/mc1_separate/060/subckts.info.subckts ...
    mc1: iteration = 60          (37.5 %), step = 1            (4.17 %)
61  41.67% 

*****************************************************************************************
* 
* INFO: AMS_processOption = C35B4C3
* 
* INFO: Valid Modules  PIP VG5 HIRES
* 
*****************************************************************************************


Notice from spectre during Monte Carlo analysis `mc1'.
    V8: `period' has the unusually large value of 100 s.


[...]


***********************************************
Transient Analysis `tran': time = (0 s -> 50 s)
***********************************************

Opening the PSF file ../psf/mc1_separate/073/tran.tran.tran ...

Warning from spectre during check, during IC analysis, during transient analysis `tran', during Monte Carlo analysis `mc1'.
    WARNING (CMI-2943): Parameter checks have been ignored because the valid value for parameter 'trise' could not be found in 'C1'.
    WARNING (CMI-2943): Parameter checks have been ignored because the valid value for parameter 'trise' could not be found in 'I0.R2.CM'.
    WARNING (CMI-2943): Parameter checks have been ignored because the valid value for parameter 'trise' could not be found in 'I0.R2.CS1'.
    WARNING (CMI-2943): Parameter checks have been ignored because the valid value for parameter 'trise' could not be found in 'I0.R2.CS0'.
    WARNING (CMI-2943): Parameter checks have been ignored because the valid value for parameter 'trise' could not be found in 'I0.C8<3>.C1'.
        Further occurrences of this warning will be suppressed.

Convergence achieved in 12 iterations.
DC simulation time: CPU = 2.293 ms, elapsed = 2.29406 ms.
Important parameter values:
    start = 0 s
    outputstart = 0 s
    stop = 50 s
    step = 50 ms
    maxstep = 500 ms
    ic = all
    useprevic = no
    skipdc = no
    reltol = 10e-06
    abstol(V) = 1 uV
    abstol(I) = 1 pA
    temp = 27 C
    tnom = 27 C
    tempeffects = all
    errpreset = conservative
    method = gear2only
    lteratio = 10
    relref = alllocal
    cmin = 0 F
    gmin = 1 pS
    rabsshort = 1 mOhm


Notice from spectre during transient analysis `tran', during Monte Carlo analysis `mc1'.
    Multithreading is disabled due to the size of the design being too small.


Output and IC/nodeset summary:
                 save   8       (current)
                 save   87      (voltage)

    tran: time = 1.25 s       (2.5 %), step = 2.678 ms    (5.36 m%)
    tran: time = 3.892 s     (7.78 %), step = 263.8 ms     (528 m%)
    tran: time = 6.643 s     (13.3 %), step = 500 ms          (1 %)
    tran: time = 9.143 s     (18.3 %), step = 500 ms          (1 %)
    tran: time = 11.64 s     (23.3 %), step = 500 ms          (1 %)
    tran: time = 14.14 s     (28.3 %), step = 500 ms          (1 %)
    tran: time = 16.64 s     (33.3 %), step = 500 ms          (1 %)
    tran: time = 19.14 s     (38.3 %), step = 500 ms          (1 %)
    tran: time = 21.64 s     (43.3 %), step = 500 ms          (1 %)
    tran: time = 24.14 s     (48.3 %), step = 500 ms          (1 %)
    tran: time = 26.64 s     (53.3 %), step = 500 ms          (1 %)
    tran: time = 29.14 s     (58.3 %), step = 500 ms          (1 %)
    tran: time = 31.64 s     (63.3 %), step = 500 ms          (1 %)
    tran: time = 34.14 s     (68.3 %), step = 500 ms          (1 %)
    tran: time = 36.64 s     (73.3 %), step = 500 ms          (1 %)
    tran: time = 39.14 s     (78.3 %), step = 500 ms          (1 %)
    tran: time = 41.64 s     (83.3 %), step = 500 ms          (1 %)
    tran: time = 44.14 s     (88.3 %), step = 500 ms          (1 %)
    tran: time = 46.64 s     (93.3 %), step = 500 ms          (1 %)
    tran: time = 49.14 s     (98.3 %), step = 500 ms          (1 %)
Number of accepted tran steps =             734

Maximum value achieved for any signal of each quantity: 
V: V(S<0>) = 3.3 V
I: I(V8:p) = 6.532 uA

~~~~~~~~~~~~~~~~~~~~~~~~~~~~~~~~~
Post-Transient Simulation Summary
~~~~~~~~~~~~~~~~~~~~~~~~~~~~~~~~~
   -   To further speed up simulation, consider
          add ++aps on command line
   -   Non-default settings that could significantly slow down simulation
          errpreset = conservative, default moderate
          reltol = 10e-06, default 100e-06 (conservative)
~~~~~~~~~~~~~~~~~~~~~~~~~~~~~~~~~


During simulation, the CPU load for active processors is :
         0 (16.6 %)      1 (88.5 %)      2 (38.1 %)      3 (34.1 %)
         4 (31.8 %)      5 (51.5 %)      6 (19.0 %)      7 (99.9 %)
         8 (29.9 %)      9 (43.5 %)     10 (48.6 %)     11 (12.9 %)
        12 (30.5 %)     13 (44.3 %)     14 (40.2 %)     15 (28.8 %)
        16 (50.7 %)     17 (43.2 %)     18 (60.1 %)     19 (45.6 %)
        20 (45.4 %)     21 (38.6 %)     22 (57.8 %)     23 (44.6 %)
        24 (35.8 %)     25 (69.3 %)     26 (33.7 %)     27 (38.8 %)
        28 (35.8 %)     29 (44.3 %)     30 (35.2 %)     31 (54.8 %)
        32 (37.3 %)     33 (95.2 %)     34 (34.7 %)     35 (60.0 %)
        36 (81.4 %)     37 (48.9 %)     38 (30.7 %)     39 (28.2 %)
        40 (99.9 %)     41 (20.5 %)     42 (38.9 %)     43 (41.0 %)
        44 (47.6 %)     45 (26.0 %)     46 (39.3 %)     47 (30.0 %)
        Total: 2151.4%
Initial condition solution time: CPU = 2.333 ms, elapsed = 2.33507 ms.
Intrinsic tran analysis time:    CPU = 407.337 ms, elapsed = 408.757 ms.
Total time required for tran analysis `tran': CPU = 412.015 ms, elapsed = 414.039 ms, util. = 99.5%.
Time accumulated: CPU = 10.9025 s, elapsed = 12.0763 s.
Peak resident memory used = 213 Mbytes.


Notice from spectre during transient analysis `tran', during Monte Carlo analysis `mc1'.
    34 warnings suppressed.

finalTimeOP: writing operating point information to rawfile.

Opening the PSF file ../psf/mc1_separate/073/finalTimeOP.info ...
modelParameter: writing model parameter values to rawfile.

Opening the PSF file ../psf/mc1_separate/073/modelParameter.info ...
element: writing instance parameter values to rawfile.

Opening the PSF file ../psf/mc1_separate/073/element.info ...
outputParameter: writing output parameter values to rawfile.

Opening the PSF file ../psf/mc1_separate/073/outputParameter.info ...
designParamVals: writing netlist parameters to rawfile.

Opening the PSFASCII file ../psf/mc1_separate/073/designParamVals.info ...
primitives: writing primitives to rawfile.

Opening the PSFASCII file ../psf/mc1_separate/073/primitives.info.primitives ...
subckts: writing subcircuits to rawfile.

Opening the PSFASCII file ../psf/mc1_separate/073/subckts.info.subckts ...
    mc1: iteration = 73          (91.7 %), step = 1            (4.17 %)
74  95.83% 

*****************************************************************************************
* 
* INFO: AMS_processOption = C35B4C3
* 
* INFO: Valid Modules  PIP VG5 HIRES
* 
*****************************************************************************************


Notice from spectre during Monte Carlo analysis `mc1'.
    V8: `period' has the unusually large value of 100 s.


***********************************************
Transient Analysis `tran': time = (0 s -> 50 s)
***********************************************

Opening the PSF file ../psf/mc1_separate/074/tran.tran.tran ...

Warning from spectre during check, during IC analysis, during transient analysis `tran', during Monte Carlo analysis `mc1'.
    WARNING (CMI-2943): Parameter checks have been ignored because the valid value for parameter 'trise' could not be found in 'C1'.
    WARNING (CMI-2943): Parameter checks have been ignored because the valid value for parameter 'trise' could not be found in 'I0.R2.CM'.
    WARNING (CMI-2943): Parameter checks have been ignored because the valid value for parameter 'trise' could not be found in 'I0.R2.CS1'.
    WARNING (CMI-2943): Parameter checks have been ignored because the valid value for parameter 'trise' could not be found in 'I0.R2.CS0'.
    WARNING (CMI-2943): Parameter checks have been ignored because the valid value for parameter 'trise' could not be found in 'I0.C8<3>.C1'.
        Further occurrences of this warning will be suppressed.

Convergence achieved in 12 iterations.
DC simulation time: CPU = 2.393 ms, elapsed = 2.39396 ms.
Important parameter values:
    start = 0 s
    outputstart = 0 s
    stop = 50 s
    step = 50 ms
    maxstep = 500 ms
    ic = all
    useprevic = no
    skipdc = no
    reltol = 10e-06
    abstol(V) = 1 uV
    abstol(I) = 1 pA
    temp = 27 C
    tnom = 27 C
    tempeffects = all
    errpreset = conservative
    method = gear2only
    lteratio = 10
    relref = alllocal
    cmin = 0 F
    gmin = 1 pS
    rabsshort = 1 mOhm


Notice from spectre during transient analysis `tran', during Monte Carlo analysis `mc1'.
    Multithreading is disabled due to the size of the design being too small.


Output and IC/nodeset summary:
                 save   8       (current)
                 save   87      (voltage)

    tran: time = 1.36 s      (2.72 %), step = 131 ms       (262 m%)
    tran: time = 4.081 s     (8.16 %), step = 377.4 ms     (755 m%)
    tran: time = 6.421 s     (12.8 %), step = 500 ms          (1 %)
    tran: time = 8.921 s     (17.8 %), step = 500 ms          (1 %)
    tran: time = 11.42 s     (22.8 %), step = 500 ms          (1 %)
    tran: time = 13.92 s     (27.8 %), step = 500 ms          (1 %)
    tran: time = 16.42 s     (32.8 %), step = 500 ms          (1 %)
    tran: time = 18.92 s     (37.8 %), step = 500 ms          (1 %)
    tran: time = 21.42 s     (42.8 %), step = 500 ms          (1 %)
    tran: time = 23.92 s     (47.8 %), step = 500 ms          (1 %)
    tran: time = 26.42 s     (52.8 %), step = 500 ms          (1 %)
    tran: time = 28.92 s     (57.8 %), step = 500 ms          (1 %)
    tran: time = 31.42 s     (62.8 %), step = 500 ms          (1 %)
    tran: time = 33.92 s     (67.8 %), step = 500 ms          (1 %)
    tran: time = 36.42 s     (72.8 %), step = 500 ms          (1 %)
    tran: time = 38.92 s     (77.8 %), step = 500 ms          (1 %)
    tran: time = 41.42 s     (82.8 %), step = 500 ms          (1 %)
    tran: time = 43.92 s     (87.8 %), step = 500 ms          (1 %)
    tran: time = 46.42 s     (92.8 %), step = 500 ms          (1 %)
    tran: time = 48.92 s     (97.8 %), step = 500 ms          (1 %)
Number of accepted tran steps =             739

Maximum value achieved for any signal of each quantity: 
V: V(S<0>) = 3.3 V
I: I(V8:p) = 6.367 uA

~~~~~~~~~~~~~~~~~~~~~~~~~~~~~~~~~
Post-Transient Simulation Summary
~~~~~~~~~~~~~~~~~~~~~~~~~~~~~~~~~
   -   To further speed up simulation, consider
          add ++aps on command line
   -   Non-default settings that could significantly slow down simulation
          errpreset = conservative, default moderate
          reltol = 10e-06, default 100e-06 (conservative)
~~~~~~~~~~~~~~~~~~~~~~~~~~~~~~~~~


During simulation, the CPU load for active processors is :
         0 (16.4 %)      1 (88.6 %)      2 (37.0 %)      3 (36.6 %)
         4 (30.9 %)      5 (49.8 %)      6 (19.1 %)      7 (99.9 %)
         8 (29.0 %)      9 (42.0 %)     10 (50.5 %)     11 (16.1 %)
        12 (30.2 %)     13 (42.9 %)     14 (38.8 %)     15 (28.0 %)
        16 (49.0 %)     17 (44.7 %)     18 (61.5 %)     19 (44.4 %)
        20 (44.2 %)     21 (40.6 %)     22 (59.3 %)     23 (46.6 %)
        24 (38.1 %)     25 (66.9 %)     26 (36.0 %)     27 (37.4 %)
        28 (37.3 %)     29 (46.3 %)     30 (34.2 %)     31 (52.8 %)
        32 (36.0 %)     33 (92.4 %)     34 (33.5 %)     35 (61.5 %)
        36 (82.1 %)     37 (50.9 %)     38 (31.2 %)     39 (27.6 %)
        40 (99.9 %)     41 (20.4 %)     42 (37.6 %)     43 (41.5 %)
        44 (46.1 %)     45 (28.7 %)     46 (38.2 %)     47 (29.1 %)
        Total: 2151.9%
Initial condition solution time: CPU = 2.464 ms, elapsed = 2.46692 ms.
Intrinsic tran analysis time:    CPU = 408.287 ms, elapsed = 409.395 ms.
Total time required for tran analysis `tran': CPU = 413.073 ms, elapsed = 414.876 ms, util. = 99.6%.
Time accumulated: CPU = 11.3552 s, elapsed = 12.5425 s.
Peak resident memory used = 213 Mbytes.


Notice from spectre during transient analysis `tran', during Monte Carlo analysis `mc1'.
    34 warnings suppressed.

finalTimeOP: writing operating point information to rawfile.

Opening the PSF file ../psf/mc1_separate/074/finalTimeOP.info ...
modelParameter: writing model parameter values to rawfile.

Opening the PSF file ../psf/mc1_separate/074/modelParameter.info ...
element: writing instance parameter values to rawfile.

Opening the PSF file ../psf/mc1_separate/074/element.info ...
outputParameter: writing output parameter values to rawfile.

Opening the PSF file ../psf/mc1_separate/074/outputParameter.info ...
designParamVals: writing netlist parameters to rawfile.

Opening the PSFASCII file ../psf/mc1_separate/074/designParamVals.info ...
primitives: writing primitives to rawfile.

Opening the PSFASCII file ../psf/mc1_separate/074/primitives.info.primitives ...
subckts: writing subcircuits to rawfile.

Opening the PSFASCII file ../psf/mc1_separate/074/subckts.info.subckts ...
    mc1: iteration = 74          (95.8 %), step = 1            (4.17 %)
75 100.00% 

*****************************************************************************************
* 
* INFO: AMS_processOption = C35B4C3
* 
* INFO: Valid Modules  PIP VG5 HIRES
* 
*****************************************************************************************


Notice from spectre during Monte Carlo analysis `mc1'.
    V8: `period' has the unusually large value of 100 s.


***********************************************
Transient Analysis `tran': time = (0 s -> 50 s)
***********************************************

Opening the PSF file ../psf/mc1_separate/075/tran.tran.tran ...

Warning from spectre during check, during IC analysis, during transient analysis `tran', during Monte Carlo analysis `mc1'.
    WARNING (CMI-2943): Parameter checks have been ignored because the valid value for parameter 'trise' could not be found in 'C1'.
    WARNING (CMI-2943): Parameter checks have been ignored because the valid value for parameter 'trise' could not be found in 'I0.R2.CM'.
    WARNING (CMI-2943): Parameter checks have been ignored because the valid value for parameter 'trise' could not be found in 'I0.R2.CS1'.
    WARNING (CMI-2943): Parameter checks have been ignored because the valid value for parameter 'trise' could not be found in 'I0.R2.CS0'.
    WARNING (CMI-2943): Parameter checks have been ignored because the valid value for parameter 'trise' could not be found in 'I0.C8<3>.C1'.
        Further occurrences of this warning will be suppressed.

Convergence achieved in 12 iterations.
DC simulation time: CPU = 2.546 ms, elapsed = 2.54703 ms.
Important parameter values:
    start = 0 s
    outputstart = 0 s
    stop = 50 s
    step = 50 ms
    maxstep = 500 ms
    ic = all
    useprevic = no
    skipdc = no
    reltol = 10e-06
    abstol(V) = 1 uV
    abstol(I) = 1 pA
    temp = 27 C
    tnom = 27 C
    tempeffects = all
    errpreset = conservative
    method = gear2only
    lteratio = 10
    relref = alllocal
    cmin = 0 F
    gmin = 1 pS
    rabsshort = 1 mOhm


Notice from spectre during transient analysis `tran', during Monte Carlo analysis `mc1'.
    Multithreading is disabled due to the size of the design being too small.


Output and IC/nodeset summary:
                 save   8       (current)
                 save   87      (voltage)

    tran: time = 1.283 s     (2.57 %), step = 102.9 ms     (206 m%)
    tran: time = 3.848 s      (7.7 %), step = 349.6 ms     (699 m%)
    tran: time = 6.598 s     (13.2 %), step = 500 ms          (1 %)
    tran: time = 9.098 s     (18.2 %), step = 500 ms          (1 %)
    tran: time = 11.6 s      (23.2 %), step = 500 ms          (1 %)
    tran: time = 14.1 s      (28.2 %), step = 500 ms          (1 %)
    tran: time = 16.6 s      (33.2 %), step = 500 ms          (1 %)
    tran: time = 19.1 s      (38.2 %), step = 500 ms          (1 %)
    tran: time = 21.6 s      (43.2 %), step = 500 ms          (1 %)
    tran: time = 24.1 s      (48.2 %), step = 500 ms          (1 %)
    tran: time = 26.6 s      (53.2 %), step = 500 ms          (1 %)
    tran: time = 29.1 s      (58.2 %), step = 500 ms          (1 %)
    tran: time = 31.6 s      (63.2 %), step = 500 ms          (1 %)
    tran: time = 34.1 s      (68.2 %), step = 500 ms          (1 %)
    tran: time = 36.6 s      (73.2 %), step = 500 ms          (1 %)
    tran: time = 39.1 s      (78.2 %), step = 500 ms          (1 %)
    tran: time = 41.6 s      (83.2 %), step = 500 ms          (1 %)
    tran: time = 44.1 s      (88.2 %), step = 500 ms          (1 %)
    tran: time = 46.6 s      (93.2 %), step = 500 ms          (1 %)
    tran: time = 49.1 s      (98.2 %), step = 500 ms          (1 %)
Number of accepted tran steps =             749

Maximum value achieved for any signal of each quantity: 
V: V(vout) = 3.3 V
I: I(V8:p) = 6.656 uA

~~~~~~~~~~~~~~~~~~~~~~~~~~~~~~~~~
Post-Transient Simulation Summary
~~~~~~~~~~~~~~~~~~~~~~~~~~~~~~~~~
   -   To further speed up simulation, consider
          add ++aps on command line
   -   Non-default settings that could significantly slow down simulation
          errpreset = conservative, default moderate
          reltol = 10e-06, default 100e-06 (conservative)
~~~~~~~~~~~~~~~~~~~~~~~~~~~~~~~~~


During simulation, the CPU load for active processors is :
         0 (16.0 %)      1 (88.0 %)      2 (36.2 %)      3 (37.1 %)
         4 (30.0 %)      5 (49.1 %)      6 (20.9 %)      7 (99.9 %)
         8 (28.2 %)      9 (40.7 %)     10 (52.2 %)     11 (18.2 %)
        12 (29.9 %)     13 (41.4 %)     14 (37.5 %)     15 (30.5 %)
        16 (47.7 %)     17 (43.2 %)     18 (59.6 %)     19 (43.3 %)
        20 (46.0 %)     21 (42.7 %)     22 (60.2 %)     23 (48.5 %)
        24 (38.5 %)     25 (64.7 %)     26 (34.9 %)     27 (37.2 %)
        28 (39.6 %)     29 (48.1 %)     30 (33.8 %)     31 (51.1 %)
        32 (36.2 %)     33 (89.3 %)     34 (32.7 %)     35 (62.8 %)
        36 (79.9 %)     37 (52.7 %)     38 (31.9 %)     39 (29.6 %)
        40 (96.9 %)     41 (20.0 %)     42 (36.9 %)     43 (42.4 %)
        44 (44.5 %)     45 (28.5 %)     46 (38.3 %)     47 (28.8 %)
        Total: 2146.0%
Initial condition solution time: CPU = 2.584 ms, elapsed = 2.58613 ms.
Intrinsic tran analysis time:    CPU = 408.465 ms, elapsed = 410.061 ms.
Total time required for tran analysis `tran': CPU = 413.366 ms, elapsed = 415.708 ms, util. = 99.4%.
Time accumulated: CPU = 11.8101 s, elapsed = 13.0104 s.
Peak resident memory used = 213 Mbytes.


Notice from spectre during transient analysis `tran', during Monte Carlo analysis `mc1'.
    34 warnings suppressed.

finalTimeOP: writing operating point information to rawfile.

Opening the PSF file ../psf/mc1_separate/075/finalTimeOP.info ...
modelParameter: writing model parameter values to rawfile.

Opening the PSF file ../psf/mc1_separate/075/modelParameter.info ...
element: writing instance parameter values to rawfile.

Opening the PSF file ../psf/mc1_separate/075/element.info ...
outputParameter: writing output parameter values to rawfile.

Opening the PSF file ../psf/mc1_separate/075/outputParameter.info ...
designParamVals: writing netlist parameters to rawfile.

Opening the PSFASCII file ../psf/mc1_separate/075/designParamVals.info ...
primitives: writing primitives to rawfile.

Opening the PSFASCII file ../psf/mc1_separate/075/primitives.info.primitives ...
subckts: writing subcircuits to rawfile.

Opening the PSFASCII file ../psf/mc1_separate/075/subckts.info.subckts ...
    mc1: iteration = 75           (100 %), step = 1            (4.17 %)
Total time required for montecarlo analysis `mc1': CPU = 11.2385 s, elapsed = 11.5682 s, util. = 97.1%.
Time accumulated: CPU = 11.8348 s, elapsed = 13.0458 s.
Peak resident memory used = 213 Mbytes.

Licensing Information:
Lic Summary:
[09:36:48.217530] Cdslmd servers:3000@lic08.ug.kth.se:29000@lic06.ug.kth.se
[09:36:48.741857] Feature usage summary:
[09:36:48.741858] Virtuoso_Multi_mode_Simulation


Aggregate audit (9:36:48 AM, Thur Apr 16, 2026):
Time used: CPU = 11.9 s, elapsed = 13.1 s, util. = 90.7%.
Time spent in licensing: elapsed = 47.1 ms.
Peak memory used = 213 Mbytes.
Simulation started at: 9:36:35 AM, Thur Apr 16, 2026, ended at: 9:36:48 AM, Thur Apr 16, 2026, with elapsed time (wall clock): 13.1 s.
spectre completes with 0 errors, 142 warnings, and 83 notices.
