
Spectre (R) Circuit Simulator
Version 24.1.0.288.isr5 64bit -- 3 Apr 2025
Copyright (C) 1989-2025 Cadence Design Systems, Inc. All rights reserved worldwide. Cadence and Spectre are registered trademarks of Cadence Design Systems, Inc. All others are the property of their respective holders.

Includes RSA BSAFE(R) Cryptographic or Security Protocol Software from RSA Security, Inc.

User: davidevi   Host: il2244vt26_davidevi   HostID: 11AC2C00   PID: 1022157
Memory  available: 3.0306 TB  physical: 3.2467 TB
Linux   : Rocky Linux release 8.10 (Green Obsidian)
CPU Type: Intel(R) Xeon(R) CPU E7-8857 v2 @ 3.00GHz
        Socket: Processors [Frequency]
        0:       0 [3200.0],  1 [2400.0],  2 [2999.9],  3 [3000.0],  4 [1200.0]
                 5 [2999.9],  6 [3600.0],  7 [1200.0],  8 [2900.0],  9 [2999.9]
                10 [2999.9], 11 [2999.9]
        1:      12 [3355.4], 13 [3600.0], 14 [1200.0], 15 [2800.0], 16 [1200.0]
                17 [1200.0], 18 [1200.0], 19 [3394.8], 20 [1500.0], 21 [3394.8]
                22 [2700.0], 23 [3394.9]
        2:      24 [2999.9], 25 [2999.9], 26 [3600.0], 27 [1200.0], 28 [2999.9]
                29 [1200.0], 30 [1200.0], 31 [1200.0], 32 [1200.0], 33 [1200.0]
                34 [1200.0], 35 [1200.0]
        3:      36 [1200.0], 37 [2400.0], 38 [2999.9], 39 [2500.0], 40 [2999.9]
                41 [3600.0], 42 [3600.0], 43 [2999.9], 44 [2500.0], 45 [2500.0]
                46 [3600.0], 47 [2400.0]
        
System load averages (1min, 5min, 15min) : 25.6 %, 22.8 %, 24.1 %
HPC is enabled


Simulating `input.scs' on il2244vt26_davidevi at 4:48:08 PM, Wed Apr 15, 2026 (process id: 1022157).
Current working directory: /home/davidevi/Desktop/myproject/Sim/VGA/VGA_1_wakeup_tb/adexl/results/data/MonteCarlo.0/8/wakeup/groupRunDataDir/netlist
Command line:
    /opt/tools/cadence/installs/SPECTRE241/tools/bin/spectre -64  \
        input.scs +escchars +log ../psf/spectre.out -format psfbin  \
        +rtsf -raw ../psf +aps +mt +lqtimeout 900 -maxw 5 -maxn 5  \
        +param /opt/pdk/ams/410/spectre/ams_range.lmts -env ade  \
        -ahdllibdir  \
        /home/davidevi/Desktop/myproject/Sim/VGA/VGA_1_wakeup_tb/adexl/results/data/MonteCarlo.0/sharedData/Job456/ahdl/input.ahdlSimDB  \
        +logstatus  \
        +adespetkn=0001089D13A302B663E41FB550AF0DF415A679A322D5069144BF588C12F604E07EF416DC01A319B562BB63D36BF22DBB45A309A902D923A073AB50EE62F54F927ADE79D15D9175FF34986BDD0AF002BA50FD7FD707E002A700AC1C801BFD45E00EAD79D128F874D3349879D118F874D33498100ED9BFB5945D47000036B0

Simulation Id: YhMR7KG3WsALgyNF
Licensing Information:
[16:48:08.121818] Configured Lic search path (24.01-s002): 3000@lic08.ug.kth.se:29000@lic06.ug.kth.se

Licensing Information:
[16:48:08.256969] Periodic Lic check successful

Loading /opt/tools/cadence/installs/SPECTRE241/tools.lnx86/cmi/lib/64bit/5.0/libinfineon_sh.so ...
Loading /opt/tools/cadence/installs/SPECTRE241/tools.lnx86/cmi/lib/64bit/5.0/libphilips_I_sh.so ...
Loading /opt/tools/cadence/installs/SPECTRE241/tools.lnx86/cmi/lib/64bit/5.0/libphilips_sh.so ...
Loading /opt/tools/cadence/installs/SPECTRE241/tools.lnx86/cmi/lib/64bit/5.0/libsparam_sh.so ...
Loading /opt/tools/cadence/installs/SPECTRE241/tools.lnx86/cmi/lib/64bit/5.0/libstmodels_sh.so ...

Warning from spectre.
    WARNING (SPECTRE-691): This CPU processor does not support x86 advanced vector extensions instructions. This may affect math operations and slow down the simulation.

Reading file:  /home/davidevi/Desktop/myproject/Sim/VGA/VGA_1_wakeup_tb/adexl/results/data/MonteCarlo.0/8/wakeup/groupRunDataDir/netlist/input.scs
Reading file:  /opt/pdk/ams/410/spectre/ams_range.lmts

Warning from spectre during read of parameter soft limits file `/opt/pdk/ams/410/spectre/ams_range.lmts', during circuit read-in.
    WARNING (SPECTRE-8360): line 1511: `ac' is an undefined primitive device.
    WARNING (SPECTRE-8360): line 1512: `ac' is an undefined primitive device.
    WARNING (SPECTRE-8360): line 1513: `ac' is an undefined primitive device.
    WARNING (SPECTRE-8360): line 1514: `ac' is an undefined primitive device.
    WARNING (SPECTRE-8360): line 1515: `ac' is an undefined primitive device.
        Further occurrences of this warning will be suppressed.

Reading file:  /opt/tools/cadence/installs/SPECTRE241/tools.lnx86/spectre/etc/configs/spectre.cfg
Reading file:  /opt/pdk/ams/410/spectre/c35/soac/soac.scs
Reading file:  /opt/pdk/ams/410/spectre/c35/soac/processOption.scs
Reading file:  /opt/pdk/ams/410/spectre/c35/soac/process.scs
Reading file:  /opt/pdk/ams/410/spectre/c35/soac/soac.va

Warning from spectre during AHDL read-in.
    WARNING (VACOMP-2435): The environment variable CDS_AHDLCMI_ENABLE is no longer supported. Therefore, the simulator will use the default compiled C code flow.

Reading link:  /opt/tools/cadence/installs/SPECTRE241/tools.lnx86/spectre/etc/ahdl/constants.h
Reading file:  /opt/tools/cadence/installs/SPECTRE241/tools.lnx86/spectre/etc/ahdl/constants.vams
Reading link:  /opt/tools/cadence/installs/SPECTRE241/tools.lnx86/spectre/etc/ahdl/discipline.h
Reading file:  /opt/tools/cadence/installs/SPECTRE241/tools.lnx86/spectre/etc/ahdl/disciplines.vams
Reading file:  /opt/pdk/ams/410/spectre/c35/processOption/C35B4C3.scs
Reading file:  /opt/pdk/ams/410/spectre/c35/soac/cmos53.scs
Reading file:  /opt/pdk/ams/410/spectre/c35/soac/res.scs
Reading file:  /opt/pdk/ams/410/spectre/c35/soac/cap.scs
Reading file:  /opt/pdk/ams/410/spectre/c35/soac/bip.scs
Reading file:  /opt/pdk/ams/410/spectre/c35/soac/ind.scs
Reading file:  /opt/pdk/ams/410/spectre/c35/soac/esddiode.scs
Time for NDB Parsing: CPU = 186.406 ms, elapsed = 336.613 ms.
Time accumulated: CPU = 401.385 ms, elapsed = 336.616 ms.
Peak resident memory used = 175 Mbytes.

Existing shared object for module modn_ahdl is up to date.
Installed compiled interface for modn_ahdl.
Existing shared object for module modp_ahdl is up to date.
Installed compiled interface for modp_ahdl.
Existing shared object for module cpoly_ahdl is up to date.
Installed compiled interface for cpoly_ahdl.
Existing shared object for module rpolyh_ahdl is up to date.
Installed compiled interface for rpolyh_ahdl.
Existing shared object for module bsource_19b458 is up to date.
Installed compiled interface for bsource_19b458.
Time for Elaboration: CPU = 59.745 ms, elapsed = 63.1011 ms.
Time accumulated: CPU = 461.264 ms, elapsed = 399.85 ms.
Peak resident memory used = 188 Mbytes.


Notice from spectre during hierarchy flattening.
    The value 'psf' specified for the 'checklimitdest' option will no longer be supported in future releases. Use 'spectre -h' to see other recommended values for the 'checklimitdest' option.


*****************************************************************************************
* 
* INFO: AMS_processOption = C35B4C3
* 
* INFO: Valid Modules  PIP VG5 HIRES
* 
*****************************************************************************************


Notice from spectre during hierarchy flattening.
    V8: `period' has the unusually large value of 100 s.


Time for EDB Visiting: CPU = 9.887 ms, elapsed = 10.143 ms.
Time accumulated: CPU = 471.345 ms, elapsed = 410.186 ms.
Peak resident memory used = 191 Mbytes.

Loading /opt/tools/cadence/installs/SPECTRE241/tools.lnx86/mdl/lib/64bit/libSpectreEH_sh.so ...

Warning from spectre during initial setup.
    WARNING (SPECTRE-16460): SOAC_cvarm_vspsub:Specified subcircuit master `cvarm' was not found.
    WARNING (SPECTRE-16462): SOAC_cvarm_vspsub:Error in specification of subcircuit master. Assert is ignored.
    WARNING (SPECTRE-16460): SOAC_cvarm_vbs:Specified subcircuit master `cvarm' was not found.
    WARNING (SPECTRE-16462): SOAC_cvarm_vbs:Error in specification of subcircuit master. Assert is ignored.
    WARNING (SPECTRE-16460): SOAC_cvarm_vgb:Specified subcircuit master `cvarm' was not found.
    WARNING (SPECTRE-16462): SOAC_cvarm_vgb:Error in specification of subcircuit master. Assert is ignored.
    WARNING (SPECTRE-16460): SOAC_cvart_vspsub:Specified subcircuit master `cvart' was not found.
    WARNING (SPECTRE-16462): SOAC_cvart_vspsub:Error in specification of subcircuit master. Assert is ignored.
    WARNING (SPECTRE-16460): SOAC_cvart_vbs:Specified subcircuit master `cvart' was not found.
        Further occurrences of this warning will be suppressed.
    WARNING (SPECTRE-16462): SOAC_cvart_vbs:Error in specification of subcircuit master. Assert is ignored.
        Further occurrences of this warning will be suppressed.
Notice from spectre during topology check.
    Only one connection to the following 54 nodes:
        I0.MN6.psub!
        I0.MN5.psub!
        I0.MN4.psub!
        I0.MN3.psub!
        I0.MN2.psub!
        Further occurrences of this notice will be suppressed.
Notice from spectre during initial setup.
    Multithreading is disabled due to the size of the design being too small.


Netlist title:
        // Point Netlist Generated on: Apr 15 16:48:07 2026


Global user options:
         psfversion = 1.4.0
            vabstol = 1e-06
            iabstol = 1e-12
               temp = -40
           homotopy = 5
              limit = delta
         compatible = spice2
               gmin = 1e-12
             rforce = 1
           maxnotes = 5
           maxwarns = 5
             digits = 5
               cols = 80
             pivrel = 0.001
           sensfile = ../psf/sens.output
     checklimitdest = psf
     enable_pre_ver = yes
      ignorezerovar = yes
               save = allpub
             reltol = 0.0001
               tnom = 27
             scalem = 1
              scale = 1

Scoped user options:

Circuit inventory:
              nodes 88
            bsim3v3 35    
     bsource_19b458 2     
          capacitor 38    
         cpoly_ahdl 17    
            isource 1     
          modn_ahdl 19    
          modp_ahdl 16    
           resistor 1     
        rpolyh_ahdl 2     
            vsource 8     

Analysis and control statement inventory:
               info 7     
         montecarlo 1     
               tran 1     

Output statements:
             .probe 0     
           .measure 0     
               save 0     

Design checks inventory:
          paramtest 55    
             assert 175   


Notice from spectre during initial setup.
    APS enabled.
    1 notice suppressed.
    72 warnings suppressed.

Time for parsing: CPU = 18.393 ms, elapsed = 648.226 ms.
Time accumulated: CPU = 489.881 ms, elapsed = 1.05855 s.
Peak resident memory used = 198 Mbytes.

~~~~~~~~~~~~~~~~~~~~~~
Pre-Simulation Summary
~~~~~~~~~~~~~~~~~~~~~~
   -   (APS) Multi-threading. The recommended number of threads is 1, consider adding +mt=1 on command line.
~~~~~~~~~~~~~~~~~~~~~~

**************************************************
Monte Carlo Analysis `mc1': iteration = (1 -> 100)
**************************************************
Important parameter values:
    seed = 12345
    sampling = lds
    variations = all
    firstrun = 1
    numruns = 100
    nullmfactorcorrelation = no
    donominal = yes
    method = standard

**** Performing nominal run for `mc1'

Notice from spectre during transient analysis `tran', during Monte Carlo analysis `mc1'.
    No checklimit analysis defined for asserts. A default checklimit analysis 'SpectreChecklimitAnal' has been created with all asserts enabled.


***********************************************
Transient Analysis `tran': time = (0 s -> 50 s)
***********************************************

Warning from spectre during check, during IC analysis, during transient analysis `tran', during Monte Carlo analysis `mc1'.
    WARNING (CMI-2943): Parameter checks have been ignored because the valid value for parameter 'trise' could not be found in 'C1'.
    WARNING (CMI-2943): Parameter checks have been ignored because the valid value for parameter 'trise' could not be found in 'I0.R2.CM'.
    WARNING (CMI-2943): Parameter checks have been ignored because the valid value for parameter 'trise' could not be found in 'I0.R2.CS1'.
    WARNING (CMI-2943): Parameter checks have been ignored because the valid value for parameter 'trise' could not be found in 'I0.R2.CS0'.
    WARNING (CMI-2943): Parameter checks have been ignored because the valid value for parameter 'trise' could not be found in 'I0.C3.C1'.
        Further occurrences of this warning will be suppressed.

Convergence achieved in 12 iterations.
DC simulation time: CPU = 3.051 ms, elapsed = 3.052 ms.

Opening the PSF file ../psf/nom/tran.tran.tran ...
Important parameter values:
    start = 0 s
    outputstart = 0 s
    stop = 50 s
    step = 50 ms
    maxstep = 500 ms
    ic = all
    useprevic = no
    skipdc = no
    reltol = 10e-06
    abstol(V) = 1 uV
    abstol(I) = 1 pA
    temp = -40 C
    tnom = 27 C
    tempeffects = all
    errpreset = conservative
    method = gear2only
    lteratio = 10
    relref = alllocal
    cmin = 0 F
    gmin = 1 pS
    rabsshort = 1 mOhm


Notice from spectre during transient analysis `tran', during Monte Carlo analysis `mc1'.
    Multithreading is disabled due to the size of the design being too small.


Output and IC/nodeset summary:
                 save   8       (current)
                 save   87      (voltage)

    tran: time = 1.287 s     (2.57 %), step = 104.2 ms     (208 m%)
    tran: time = 4.119 s     (8.24 %), step = 398.8 ms     (798 m%)
    tran: time = 6.514 s       (13 %), step = 500 ms          (1 %)
    tran: time = 9.014 s       (18 %), step = 500 ms          (1 %)
    tran: time = 11.51 s       (23 %), step = 500 ms          (1 %)
    tran: time = 14.01 s       (28 %), step = 500 ms          (1 %)
    tran: time = 16.51 s       (33 %), step = 500 ms          (1 %)
    tran: time = 19.01 s       (38 %), step = 500 ms          (1 %)
    tran: time = 21.51 s       (43 %), step = 500 ms          (1 %)
    tran: time = 24.01 s       (48 %), step = 500 ms          (1 %)
    tran: time = 26.51 s       (53 %), step = 500 ms          (1 %)
    tran: time = 29.01 s       (58 %), step = 500 ms          (1 %)
    tran: time = 31.51 s       (63 %), step = 500 ms          (1 %)
    tran: time = 34.01 s       (68 %), step = 500 ms          (1 %)
    tran: time = 36.51 s       (73 %), step = 500 ms          (1 %)
    tran: time = 39.01 s       (78 %), step = 500 ms          (1 %)
    tran: time = 41.51 s       (83 %), step = 500 ms          (1 %)
    tran: time = 44.01 s       (88 %), step = 500 ms          (1 %)
    tran: time = 46.51 s       (93 %), step = 500 ms          (1 %)
    tran: time = 49.01 s       (98 %), step = 500 ms          (1 %)
Number of accepted tran steps =             736

Maximum value achieved for any signal of each quantity: 
V: V(vout) = 3.3 V
I: I(V8:p) = 6.479 uA

~~~~~~~~~~~~~~~~~~~~~~~~~~~~~~~~~
Post-Transient Simulation Summary
~~~~~~~~~~~~~~~~~~~~~~~~~~~~~~~~~
   -   To further speed up simulation, consider
          add ++aps on command line
   -   Non-default settings that could significantly slow down simulation
          errpreset = conservative, default moderate
          reltol = 10e-06, default 100e-06 (conservative)
~~~~~~~~~~~~~~~~~~~~~~~~~~~~~~~~~


During simulation, the CPU load for active processors is :
         0 (5.7 %)       1 (10.6 %)      2 (100.0 %)     3 (9.2 %)
         4 (4.9 %)       5 (29.9 %)      6 (37.9 %)      7 (40.6 %)
         8 (4.2 %)       9 (9.8 %)      10 (21.5 %)     11 (18.1 %)
        12 (13.8 %)     13 (6.2 %)      14 (3.4 %)      15 (4.2 %)
        16 (2.1 %)      17 (4.2 %)      18 (60.4 %)     19 (41.7 %)
        20 (2.8 %)      21 (30.6 %)     22 (70.5 %)     23 (100.0 %)
        24 (19.7 %)     25 (34.7 %)     26 (63.7 %)     27 (1.4 %)
        28 (100.0 %)    30 (21.1 %)     31 (4.2 %)      32 (4.9 %)
        33 (4.3 %)      34 (3.5 %)      35 (84.0 %)     36 (4.2 %)
        37 (9.7 %)      38 (98.0 %)     39 (9.1 %)      40 (100.0 %)
        41 (2.8 %)      42 (2.8 %)      43 (70.3 %)     44 (4.2 %)
        45 (30.8 %)     46 (10.4 %)     47 (4.1 %)      
        Total: 1320.8%
Initial condition solution time: CPU = 3.091 ms, elapsed = 3.093 ms.
Intrinsic tran analysis time:    CPU = 441.67 ms, elapsed = 443.262 ms.
Total time required for tran analysis `tran': CPU = 531.882 ms, elapsed = 537.133 ms, util. = 99%.
Time accumulated: CPU = 1.04789 s, elapsed = 1.62336 s.
Peak resident memory used = 209 Mbytes.


Notice from spectre during transient analysis `tran', during Monte Carlo analysis `mc1'.
    34 warnings suppressed.

finalTimeOP: writing operating point information to rawfile.

Opening the PSF file ../psf/nom/finalTimeOP.info ...
modelParameter: writing model parameter values to rawfile.

Opening the PSF file ../psf/nom/modelParameter.info ...
element: writing instance parameter values to rawfile.

Opening the PSF file ../psf/nom/element.info ...
outputParameter: writing output parameter values to rawfile.

Opening the PSF file ../psf/nom/outputParameter.info ...
designParamVals: writing netlist parameters to rawfile.

Opening the PSFASCII file ../psf/nom/designParamVals.info ...
primitives: writing primitives to rawfile.

Opening the PSFASCII file ../psf/nom/primitives.info.primitives ...
subckts: writing subcircuits to rawfile.

Opening the PSFASCII file ../psf/nom/subckts.info.subckts ...
Opening iteration number and data-directory mapping file:  /home/davidevi/Desktop/myproject/Sim/VGA/VGA_1_wakeup_tb/adexl/results/data/MonteCarlo.0/8/wakeup/groupRunDataDir/netlist/../psf/mc1.mapping

Statistical parameters:
    Defined process parameters: 629
    Defined mismatch parameters (subckt based): 86
    Non-referenced mismatch parameters: 80
    Number of random variables: 718
    Gaussian truncation for process parameters: 4.00 sigma
    Gaussian truncation for mismatch parameters: 4.00 sigma


Opening the PSF file ../psf/mc1_tran.montecarlo ...

Opening the PSF file ../psf/mc1_finalTimeOP.montecarlo ...

Opening the PSF file ../psf/mc1_modelParameter.montecarlo ...

Opening the PSF file ../psf/mc1_element.montecarlo ...

Opening the PSF file ../psf/mc1_outputParameter.montecarlo ...

Opening the PSF file ../psf/mc1_designParamVals.montecarlo ...

Opening the PSF file ../psf/mc1_primitives.montecarlo ...

Opening the PSF file ../psf/mc1_subckts.montecarlo ...

**** Performing monte carlo loop for `mc1'

1   0.00% 

*****************************************************************************************
* 
* INFO: AMS_processOption = C35B4C3
* 
* INFO: Valid Modules  PIP VG5 HIRES
* 
*****************************************************************************************


Notice from spectre at iteration = 1 during Monte Carlo analysis `mc1'.
    V8: `period' has the unusually large value of 100 s.


***********************************************
Transient Analysis `tran': time = (0 s -> 50 s)
***********************************************

Opening the PSF file ../psf/mc1_separate/001/tran.tran.tran ...

Warning from spectre at iteration = 1 during check, during IC analysis, during transient analysis `tran', during Monte Carlo analysis `mc1'.
    WARNING (CMI-2943): Parameter checks have been ignored because the valid value for parameter 'trise' could not be found in 'C1'.
    WARNING (CMI-2943): Parameter checks have been ignored because the valid value for parameter 'trise' could not be found in 'I0.R2.CM'.
    WARNING (CMI-2943): Parameter checks have been ignored because the valid value for parameter 'trise' could not be found in 'I0.R2.CS1'.
    WARNING (CMI-2943): Parameter checks have been ignored because the valid value for parameter 'trise' could not be found in 'I0.R2.CS0'.
    WARNING (CMI-2943): Parameter checks have been ignored because the valid value for parameter 'trise' could not be found in 'I0.C3.C1'.
        Further occurrences of this warning will be suppressed.

Convergence achieved in 12 iterations.
DC simulation time: CPU = 2.667 ms, elapsed = 2.6679 ms.
Important parameter values:
    start = 0 s
    outputstart = 0 s
    stop = 50 s
    step = 50 ms
    maxstep = 500 ms
    ic = all
    useprevic = no
    skipdc = no
    reltol = 10e-06
    abstol(V) = 1 uV
    abstol(I) = 1 pA
    temp = -40 C
    tnom = 27 C
    tempeffects = all
    errpreset = conservative
    method = gear2only
    lteratio = 10
    relref = alllocal
    cmin = 0 F
    gmin = 1 pS
    rabsshort = 1 mOhm


Notice from spectre at iteration = 1 during transient analysis `tran', during Monte Carlo analysis `mc1'.
    Multithreading is disabled due to the size of the design being too small.


Output and IC/nodeset summary:
                 save   8       (current)
                 save   87      (voltage)

    tran: time = 1.303 s     (2.61 %), step = 92.9 ms      (186 m%)
    tran: time = 3.845 s     (7.69 %), step = 360.6 ms     (721 m%)
    tran: time = 6.621 s     (13.2 %), step = 500 ms          (1 %)
    tran: time = 9.121 s     (18.2 %), step = 500 ms          (1 %)
    tran: time = 11.62 s     (23.2 %), step = 500 ms          (1 %)
    tran: time = 14.12 s     (28.2 %), step = 500 ms          (1 %)
    tran: time = 16.62 s     (33.2 %), step = 500 ms          (1 %)
    tran: time = 19.12 s     (38.2 %), step = 500 ms          (1 %)
    tran: time = 21.62 s     (43.2 %), step = 500 ms          (1 %)
    tran: time = 24.12 s     (48.2 %), step = 500 ms          (1 %)
    tran: time = 26.62 s     (53.2 %), step = 500 ms          (1 %)
    tran: time = 29.12 s     (58.2 %), step = 500 ms          (1 %)
    tran: time = 31.62 s     (63.2 %), step = 500 ms          (1 %)
    tran: time = 34.12 s     (68.2 %), step = 500 ms          (1 %)
    tran: time = 36.62 s     (73.2 %), step = 500 ms          (1 %)
    tran: time = 39.12 s     (78.2 %), step = 500 ms          (1 %)
    tran: time = 41.62 s     (83.2 %), step = 500 ms          (1 %)
    tran: time = 44.12 s     (88.2 %), step = 500 ms          (1 %)
    tran: time = 46.62 s     (93.2 %), step = 500 ms          (1 %)
    tran: time = 49.12 s     (98.2 %), step = 500 ms          (1 %)
Number of accepted tran steps =             752

Maximum value achieved for any signal of each quantity: 
V: V(vout) = 3.3 V
I: I(V8:p) = 6.382 uA

~~~~~~~~~~~~~~~~~~~~~~~~~~~~~~~~~
Post-Transient Simulation Summary
~~~~~~~~~~~~~~~~~~~~~~~~~~~~~~~~~
   -   To further speed up simulation, consider
          add ++aps on command line
   -   Non-default settings that could significantly slow down simulation
          errpreset = conservative, default moderate
          reltol = 10e-06, default 100e-06 (conservative)
~~~~~~~~~~~~~~~~~~~~~~~~~~~~~~~~~


During simulation, the CPU load for active processors is :
         0 (6.3 %)       1 (9.1 %)       2 (100.0 %)     3 (8.2 %)
         4 (4.4 %)       5 (22.4 %)      6 (32.2 %)      7 (52.4 %)
         8 (4.8 %)       9 (8.6 %)      10 (16.6 %)     11 (19.4 %)
        12 (13.6 %)     13 (6.7 %)      14 (4.8 %)      15 (9.0 %)
        16 (4.8 %)      17 (3.4 %)      18 (49.3 %)     19 (59.0 %)
        20 (5.3 %)      21 (24.8 %)     22 (76.1 %)     23 (100.0 %)
        24 (44.9 %)     25 (24.4 %)     26 (44.8 %)     27 (2.0 %)
        28 (100.0 %)    30 (14.9 %)     31 (5.2 %)      32 (3.4 %)
        33 (3.9 %)      34 (8.2 %)      35 (74.9 %)     36 (3.8 %)
        37 (8.6 %)      38 (81.7 %)     39 (38.1 %)     40 (100.0 %)
        41 (4.8 %)      42 (3.3 %)      43 (48.8 %)     44 (11.4 %)
        45 (32.4 %)     46 (8.1 %)      47 (2.9 %)      
        Total: 1312.5%
Initial condition solution time: CPU = 2.739 ms, elapsed = 2.74205 ms.
Intrinsic tran analysis time:    CPU = 452.987 ms, elapsed = 454.915 ms.
Total time required for tran analysis `tran': CPU = 458.492 ms, elapsed = 461.195 ms, util. = 99.4%.
Time accumulated: CPU = 1.58807 s, elapsed = 2.18297 s.
Peak resident memory used = 213 Mbytes.


Notice from spectre during transient analysis `tran', during Monte Carlo analysis `mc1'.
    34 warnings suppressed.

finalTimeOP: writing operating point information to rawfile.

Opening the PSF file ../psf/mc1_separate/001/finalTimeOP.info ...
modelParameter: writing model parameter values to rawfile.

Opening the PSF file ../psf/mc1_separate/001/modelParameter.info ...
element: writing instance parameter values to rawfile.

Opening the PSF file ../psf/mc1_separate/001/element.info ...
outputParameter: writing output parameter values to rawfile.

Opening the PSF file ../psf/mc1_separate/001/outputParameter.info ...
designParamVals: writing netlist parameters to rawfile.

Opening the PSFASCII file ../psf/mc1_separate/001/designParamVals.info ...
primitives: writing primitives to rawfile.

Opening the PSFASCII file ../psf/mc1_separate/001/primitives.info.primitives ...
subckts: writing subcircuits to rawfile.

Opening the PSFASCII file ../psf/mc1_separate/001/subckts.info.subckts ...
2   1.01% 

*****************************************************************************************
* 
* INFO: AMS_processOption = C35B4C3
* 
* INFO: Valid Modules  PIP VG5 HIRES
* 
*****************************************************************************************


Notice from spectre during Monte Carlo analysis `mc1'.
    V8: `period' has the unusually large value of 100 s.


***********************************************
Transient Analysis `tran': time = (0 s -> 50 s)
***********************************************

Opening the PSF file ../psf/mc1_separate/002/tran.tran.tran ...

Warning from spectre during check, during IC analysis, during transient analysis `tran', during Monte Carlo analysis `mc1'.
    WARNING (CMI-2943): Parameter checks have been ignored because the valid value for parameter 'trise' could not be found in 'C1'.
    WARNING (CMI-2943): Parameter checks have been ignored because the valid value for parameter 'trise' could not be found in 'I0.R2.CM'.
    WARNING (CMI-2943): Parameter checks have been ignored because the valid value for parameter 'trise' could not be found in 'I0.R2.CS1'.
    WARNING (CMI-2943): Parameter checks have been ignored because the valid value for parameter 'trise' could not be found in 'I0.R2.CS0'.
    WARNING (CMI-2943): Parameter checks have been ignored because the valid value for parameter 'trise' could not be found in 'I0.C3.C1'.
        Further occurrences of this warning will be suppressed.

Convergence achieved in 12 iterations.
DC simulation time: CPU = 2.505 ms, elapsed = 2.50602 ms.
Important parameter values:
    start = 0 s
    outputstart = 0 s
    stop = 50 s
    step = 50 ms
    maxstep = 500 ms
    ic = all
    useprevic = no
    skipdc = no
    reltol = 10e-06
    abstol(V) = 1 uV
    abstol(I) = 1 pA
    temp = -40 C
    tnom = 27 C
    tempeffects = all
    errpreset = conservative
    method = gear2only
    lteratio = 10
    relref = alllocal
    cmin = 0 F
    gmin = 1 pS
    rabsshort = 1 mOhm


Notice from spectre during transient analysis `tran', during Monte Carlo analysis `mc1'.
    Multithreading is disabled due to the size of the design being too small.


Output and IC/nodeset summary:
                 save   8       (current)
                 save   87      (voltage)

    tran: time = 1.321 s     (2.64 %), step = 100.3 ms     (201 m%)
    tran: time = 4.057 s     (8.11 %), step = 386.1 ms     (772 m%)
    tran: time = 6.412 s     (12.8 %), step = 500 ms          (1 %)
    tran: time = 8.912 s     (17.8 %), step = 500 ms          (1 %)
    tran: time = 11.41 s     (22.8 %), step = 500 ms          (1 %)
    tran: time = 13.91 s     (27.8 %), step = 500 ms          (1 %)
    tran: time = 16.41 s     (32.8 %), step = 500 ms          (1 %)
    tran: time = 18.91 s     (37.8 %), step = 500 ms          (1 %)
    tran: time = 21.41 s     (42.8 %), step = 500 ms          (1 %)
    tran: time = 23.91 s     (47.8 %), step = 500 ms          (1 %)
    tran: time = 26.41 s     (52.8 %), step = 500 ms          (1 %)
    tran: time = 28.91 s     (57.8 %), step = 500 ms          (1 %)
    tran: time = 31.41 s     (62.8 %), step = 500 ms          (1 %)
    tran: time = 33.91 s     (67.8 %), step = 500 ms          (1 %)
    tran: time = 36.41 s     (72.8 %), step = 500 ms          (1 %)
    tran: time = 38.91 s     (77.8 %), step = 500 ms          (1 %)
    tran: time = 41.41 s     (82.8 %), step = 500 ms          (1 %)
    tran: time = 43.91 s     (87.8 %), step = 500 ms          (1 %)
    tran: time = 46.41 s     (92.8 %), step = 500 ms          (1 %)
    tran: time = 48.91 s     (97.8 %), step = 500 ms          (1 %)
Number of accepted tran steps =             747

Maximum value achieved for any signal of each quantity: 
V: V(vout) = 3.3 V
I: I(V8:p) = 6.412 uA

~~~~~~~~~~~~~~~~~~~~~~~~~~~~~~~~~
Post-Transient Simulation Summary
~~~~~~~~~~~~~~~~~~~~~~~~~~~~~~~~~
   -   To further speed up simulation, consider
          add ++aps on command line
   -   Non-default settings that could significantly slow down simulation
          errpreset = conservative, default moderate
          reltol = 10e-06, default 100e-06 (conservative)
~~~~~~~~~~~~~~~~~~~~~~~~~~~~~~~~~


During simulation, the CPU load for active processors is :
         0 (5.8 %)       1 (8.1 %)       2 (100.0 %)     3 (8.6 %)
         4 (3.9 %)       5 (20.1 %)      6 (29.9 %)      7 (44.1 %)
         8 (22.2 %)      9 (9.7 %)      10 (15.0 %)     11 (16.0 %)
        12 (12.4 %)     13 (23.8 %)     14 (5.0 %)      15 (7.3 %)
        16 (7.0 %)      17 (3.1 %)      18 (40.8 %)     19 (66.0 %)
        20 (5.4 %)      21 (20.1 %)     22 (64.0 %)     23 (98.9 %)
        24 (54.4 %)     25 (20.6 %)     26 (36.4 %)     27 (2.3 %)
        28 (100.0 %)    30 (13.1 %)     31 (4.6 %)      32 (3.1 %)
        33 (4.3 %)      34 (25.9 %)     35 (61.1 %)     36 (3.9 %)
        37 (17.3 %)     38 (70.1 %)     39 (37.2 %)     40 (100.0 %)
        41 (3.9 %)      42 (2.7 %)      43 (43.3 %)     44 (9.6 %)
        45 (45.0 %)     46 (7.3 %)      47 (2.3 %)      
        Total: 1306.4%
Initial condition solution time: CPU = 2.568 ms, elapsed = 2.57111 ms.
Intrinsic tran analysis time:    CPU = 450.126 ms, elapsed = 451.854 ms.
Total time required for tran analysis `tran': CPU = 455.527 ms, elapsed = 458.054 ms, util. = 99.4%.
Time accumulated: CPU = 2.08455 s, elapsed = 2.69347 s.
Peak resident memory used = 213 Mbytes.


Notice from spectre during transient analysis `tran', during Monte Carlo analysis `mc1'.
    34 warnings suppressed.

finalTimeOP: writing operating point information to rawfile.

Opening the PSF file ../psf/mc1_separate/002/finalTimeOP.info ...
modelParameter: writing model parameter values to rawfile.

Opening the PSF file ../psf/mc1_separate/002/modelParameter.info ...
element: writing instance parameter values to rawfile.

Opening the PSF file ../psf/mc1_separate/002/element.info ...
outputParameter: writing output parameter values to rawfile.

Opening the PSF file ../psf/mc1_separate/002/outputParameter.info ...
designParamVals: writing netlist parameters to rawfile.

Opening the PSFASCII file ../psf/mc1_separate/002/designParamVals.info ...
primitives: writing primitives to rawfile.

Opening the PSFASCII file ../psf/mc1_separate/002/primitives.info.primitives ...
subckts: writing subcircuits to rawfile.

Opening the PSFASCII file ../psf/mc1_separate/002/subckts.info.subckts ...
3   2.02% 

*****************************************************************************************
* 
* INFO: AMS_processOption = C35B4C3
* 
* INFO: Valid Modules  PIP VG5 HIRES
* 
*****************************************************************************************


Notice from spectre during Monte Carlo analysis `mc1'.
    V8: `period' has the unusually large value of 100 s.


***********************************************
Transient Analysis `tran': time = (0 s -> 50 s)
***********************************************

Opening the PSF file ../psf/mc1_separate/003/tran.tran.tran ...

Warning from spectre during check, during IC analysis, during transient analysis `tran', during Monte Carlo analysis `mc1'.
    WARNING (CMI-2943): Parameter checks have been ignored because the valid value for parameter 'trise' could not be found in 'C1'.
    WARNING (CMI-2943): Parameter checks have been ignored because the valid value for parameter 'trise' could not be found in 'I0.R2.CM'.
    WARNING (CMI-2943): Parameter checks have been ignored because the valid value for parameter 'trise' could not be found in 'I0.R2.CS1'.
    WARNING (CMI-2943): Parameter checks have been ignored because the valid value for parameter 'trise' could not be found in 'I0.R2.CS0'.
    WARNING (CMI-2943): Parameter checks have been ignored because the valid value for parameter 'trise' could not be found in 'I0.C3.C1'.
        Further occurrences of this warning will be suppressed.

Convergence achieved in 12 iterations.
DC simulation time: CPU = 2.675 ms, elapsed = 2.67601 ms.
Important parameter values:
    start = 0 s
    outputstart = 0 s
    stop = 50 s
    step = 50 ms
    maxstep = 500 ms
    ic = all
    useprevic = no
    skipdc = no
    reltol = 10e-06
    abstol(V) = 1 uV
    abstol(I) = 1 pA
    temp = -40 C
    tnom = 27 C
    tempeffects = all
    errpreset = conservative
    method = gear2only
    lteratio = 10
    relref = alllocal
    cmin = 0 F
    gmin = 1 pS
    rabsshort = 1 mOhm


Notice from spectre during transient analysis `tran', during Monte Carlo analysis `mc1'.
    Multithreading is disabled due to the size of the design being too small.


Output and IC/nodeset summary:
                 save   8       (current)
                 save   87      (voltage)

    tran: time = 1.271 s     (2.54 %), step = 113.7 ms     (227 m%)
    tran: time = 3.903 s     (7.81 %), step = 385.3 ms     (771 m%)
    tran: time = 6.262 s     (12.5 %), step = 500 ms          (1 %)
    tran: time = 8.762 s     (17.5 %), step = 500 ms          (1 %)
    tran: time = 11.26 s     (22.5 %), step = 500 ms          (1 %)
    tran: time = 13.76 s     (27.5 %), step = 500 ms          (1 %)
    tran: time = 16.26 s     (32.5 %), step = 500 ms          (1 %)
    tran: time = 18.76 s     (37.5 %), step = 500 ms          (1 %)
    tran: time = 21.26 s     (42.5 %), step = 500 ms          (1 %)
    tran: time = 23.76 s     (47.5 %), step = 500 ms          (1 %)
    tran: time = 26.26 s     (52.5 %), step = 500 ms          (1 %)
    tran: time = 28.76 s     (57.5 %), step = 500 ms          (1 %)
    tran: time = 31.26 s     (62.5 %), step = 500 ms          (1 %)
    tran: time = 33.76 s     (67.5 %), step = 500 ms          (1 %)
    tran: time = 36.26 s     (72.5 %), step = 500 ms          (1 %)
    tran: time = 38.76 s     (77.5 %), step = 500 ms          (1 %)
    tran: time = 41.26 s     (82.5 %), step = 500 ms          (1 %)
    tran: time = 43.76 s     (87.5 %), step = 500 ms          (1 %)
    tran: time = 46.26 s     (92.5 %), step = 500 ms          (1 %)
    tran: time = 48.76 s     (97.5 %), step = 500 ms          (1 %)
Number of accepted tran steps =             747

Maximum value achieved for any signal of each quantity: 
V: V(vout) = 3.3 V
I: I(V8:p) = 6.302 uA

~~~~~~~~~~~~~~~~~~~~~~~~~~~~~~~~~
Post-Transient Simulation Summary
~~~~~~~~~~~~~~~~~~~~~~~~~~~~~~~~~
   -   To further speed up simulation, consider
          add ++aps on command line
   -   Non-default settings that could significantly slow down simulation
          errpreset = conservative, default moderate
          reltol = 10e-06, default 100e-06 (conservative)
~~~~~~~~~~~~~~~~~~~~~~~~~~~~~~~~~


During simulation, the CPU load for active processors is :
         0 (5.5 %)       1 (7.8 %)       2 (100.0 %)     3 (9.7 %)
         4 (3.6 %)       5 (23.9 %)      6 (27.7 %)      7 (38.0 %)
         8 (34.8 %)      9 (10.4 %)     10 (14.1 %)     11 (13.8 %)
        12 (12.2 %)     13 (27.3 %)     14 (4.8 %)      15 (7.7 %)
        16 (11.3 %)     17 (4.9 %)      18 (49.7 %)     19 (66.8 %)
        20 (10.3 %)     21 (17.2 %)     22 (54.4 %)     23 (84.4 %)
        24 (61.6 %)     25 (18.6 %)     26 (31.3 %)     27 (2.6 %)
        28 (100.0 %)    30 (11.6 %)     31 (4.8 %)      32 (2.6 %)
        33 (4.2 %)      34 (36.5 %)     35 (51.8 %)     36 (3.6 %)
        37 (30.9 %)     38 (59.0 %)     39 (31.2 %)     40 (100.0 %)
        41 (3.3 %)      42 (2.9 %)      43 (36.5 %)     44 (8.4 %)
        45 (47.6 %)     46 (12.9 %)     47 (2.6 %)      
        Total: 1305.7%
Initial condition solution time: CPU = 2.724 ms, elapsed = 2.72608 ms.
Intrinsic tran analysis time:    CPU = 451.415 ms, elapsed = 453.048 ms.
Total time required for tran analysis `tran': CPU = 456.852 ms, elapsed = 459.244 ms, util. = 99.5%.
Time accumulated: CPU = 2.58546 s, elapsed = 3.20842 s.
Peak resident memory used = 213 Mbytes.


Notice from spectre during transient analysis `tran', during Monte Carlo analysis `mc1'.
    34 warnings suppressed.

finalTimeOP: writing operating point information to rawfile.

Opening the PSF file ../psf/mc1_separate/003/finalTimeOP.info ...
modelParameter: writing model parameter values to rawfile.

Opening the PSF file ../psf/mc1_separate/003/modelParameter.info ...
element: writing instance parameter values to rawfile.

Opening the PSF file ../psf/mc1_separate/003/element.info ...
outputParameter: writing output parameter values to rawfile.

Opening the PSF file ../psf/mc1_separate/003/outputParameter.info ...
designParamVals: writing netlist parameters to rawfile.

Opening the PSFASCII file ../psf/mc1_separate/003/designParamVals.info ...
primitives: writing primitives to rawfile.

Opening the PSFASCII file ../psf/mc1_separate/003/primitives.info.primitives ...
subckts: writing subcircuits to rawfile.

Opening the PSFASCII file ../psf/mc1_separate/003/subckts.info.subckts ...
4   3.03% 

*****************************************************************************************
* 
* INFO: AMS_processOption = C35B4C3
* 
* INFO: Valid Modules  PIP VG5 HIRES
* 
*****************************************************************************************


Notice from spectre during Monte Carlo analysis `mc1'.
    V8: `period' has the unusually large value of 100 s.


***********************************************
Transient Analysis `tran': time = (0 s -> 50 s)
***********************************************

Opening the PSF file ../psf/mc1_separate/004/tran.tran.tran ...

Warning from spectre during check, during IC analysis, during transient analysis `tran', during Monte Carlo analysis `mc1'.
    WARNING (CMI-2943): Parameter checks have been ignored because the valid value for parameter 'trise' could not be found in 'C1'.
    WARNING (CMI-2943): Parameter checks have been ignored because the valid value for parameter 'trise' could not be found in 'I0.R2.CM'.
    WARNING (CMI-2943): Parameter checks have been ignored because the valid value for parameter 'trise' could not be found in 'I0.R2.CS1'.
    WARNING (CMI-2943): Parameter checks have been ignored because the valid value for parameter 'trise' could not be found in 'I0.R2.CS0'.
    WARNING (CMI-2943): Parameter checks have been ignored because the valid value for parameter 'trise' could not be found in 'I0.C3.C1'.
        Further occurrences of this warning will be suppressed.

Convergence achieved in 12 iterations.
DC simulation time: CPU = 2.503 ms, elapsed = 2.50387 ms.
Important parameter values:
    start = 0 s
    outputstart = 0 s
    stop = 50 s
    step = 50 ms
    maxstep = 500 ms
    ic = all
    useprevic = no
    skipdc = no
    reltol = 10e-06
    abstol(V) = 1 uV
    abstol(I) = 1 pA
    temp = -40 C
    tnom = 27 C
    tempeffects = all
    errpreset = conservative
    method = gear2only
    lteratio = 10
    relref = alllocal
    cmin = 0 F
    gmin = 1 pS
    rabsshort = 1 mOhm


Notice from spectre during transient analysis `tran', during Monte Carlo analysis `mc1'.
    Multithreading is disabled due to the size of the design being too small.


Output and IC/nodeset summary:
                 save   8       (current)
                 save   87      (voltage)

    tran: time = 1.262 s     (2.52 %), step = 114.8 ms     (230 m%)
    tran: time = 3.913 s     (7.83 %), step = 386.7 ms     (773 m%)
    tran: time = 6.277 s     (12.6 %), step = 500 ms          (1 %)
    tran: time = 8.777 s     (17.6 %), step = 500 ms          (1 %)
    tran: time = 11.28 s     (22.6 %), step = 500 ms          (1 %)
    tran: time = 13.78 s     (27.6 %), step = 500 ms          (1 %)
    tran: time = 16.28 s     (32.6 %), step = 500 ms          (1 %)
    tran: time = 18.78 s     (37.6 %), step = 500 ms          (1 %)
    tran: time = 21.28 s     (42.6 %), step = 500 ms          (1 %)
    tran: time = 23.78 s     (47.6 %), step = 500 ms          (1 %)
    tran: time = 26.28 s     (52.6 %), step = 500 ms          (1 %)
    tran: time = 28.78 s     (57.6 %), step = 500 ms          (1 %)
    tran: time = 31.28 s     (62.6 %), step = 500 ms          (1 %)
    tran: time = 33.78 s     (67.6 %), step = 500 ms          (1 %)
    tran: time = 36.28 s     (72.6 %), step = 500 ms          (1 %)
    tran: time = 38.78 s     (77.6 %), step = 500 ms          (1 %)
    tran: time = 41.28 s     (82.6 %), step = 500 ms          (1 %)
    tran: time = 43.78 s     (87.6 %), step = 500 ms          (1 %)
    tran: time = 46.28 s     (92.6 %), step = 500 ms          (1 %)
    tran: time = 48.78 s     (97.6 %), step = 500 ms          (1 %)
Number of accepted tran steps =             752

Maximum value achieved for any signal of each quantity: 
V: V(vout) = 3.3 V
I: I(V8:p) = 6.604 uA

~~~~~~~~~~~~~~~~~~~~~~~~~~~~~~~~~
Post-Transient Simulation Summary
~~~~~~~~~~~~~~~~~~~~~~~~~~~~~~~~~
   -   To further speed up simulation, consider
          add ++aps on command line
   -   Non-default settings that could significantly slow down simulation
          errpreset = conservative, default moderate
          reltol = 10e-06, default 100e-06 (conservative)
~~~~~~~~~~~~~~~~~~~~~~~~~~~~~~~~~


During simulation, the CPU load for active processors is :
         0 (5.3 %)       1 (7.0 %)       2 (100.0 %)     3 (8.9 %)
         4 (9.6 %)       5 (34.5 %)      6 (23.9 %)      7 (33.8 %)
         8 (44.0 %)      9 (9.4 %)      10 (12.5 %)     11 (13.2 %)
        12 (12.9 %)     13 (24.1 %)     14 (4.7 %)      15 (7.4 %)
        16 (10.2 %)     17 (7.0 %)      18 (56.9 %)     19 (57.8 %)
        20 (16.9 %)     21 (20.8 %)     22 (49.2 %)     23 (73.2 %)
        24 (66.5 %)     25 (18.5 %)     26 (40.5 %)     27 (2.5 %)
        28 (100.0 %)    29 (1.1 %)      30 (10.3 %)     31 (4.7 %)
        32 (2.2 %)      33 (4.2 %)      34 (31.7 %)     35 (45.1 %)
        36 (3.9 %)      37 (35.5 %)     38 (51.2 %)     39 (27.5 %)
        40 (100.0 %)    41 (3.4 %)      42 (6.4 %)      43 (36.2 %)
        44 (7.8 %)      45 (41.3 %)     46 (24.9 %)     47 (2.5 %)
        Total: 1311.1%
Initial condition solution time: CPU = 2.562 ms, elapsed = 2.56395 ms.
Intrinsic tran analysis time:    CPU = 453.449 ms, elapsed = 454.844 ms.
Total time required for tran analysis `tran': CPU = 458.813 ms, elapsed = 460.905 ms, util. = 99.5%.
Time accumulated: CPU = 3.08597 s, elapsed = 3.72203 s.
Peak resident memory used = 213 Mbytes.


Notice from spectre during transient analysis `tran', during Monte Carlo analysis `mc1'.
    34 warnings suppressed.

finalTimeOP: writing operating point information to rawfile.

Opening the PSF file ../psf/mc1_separate/004/finalTimeOP.info ...
modelParameter: writing model parameter values to rawfile.

Opening the PSF file ../psf/mc1_separate/004/modelParameter.info ...
element: writing instance parameter values to rawfile.

Opening the PSF file ../psf/mc1_separate/004/element.info ...
outputParameter: writing output parameter values to rawfile.

Opening the PSF file ../psf/mc1_separate/004/outputParameter.info ...
designParamVals: writing netlist parameters to rawfile.

Opening the PSFASCII file ../psf/mc1_separate/004/designParamVals.info ...
primitives: writing primitives to rawfile.

Opening the PSFASCII file ../psf/mc1_separate/004/primitives.info.primitives ...
subckts: writing subcircuits to rawfile.

Opening the PSFASCII file ../psf/mc1_separate/004/subckts.info.subckts ...
    mc1: iteration = 4           (3.03 %), step = 1            (1.01 %)
5   4.04% 

*****************************************************************************************
* 
* INFO: AMS_processOption = C35B4C3
* 
* INFO: Valid Modules  PIP VG5 HIRES
* 
*****************************************************************************************


Notice from spectre during Monte Carlo analysis `mc1'.
    V8: `period' has the unusually large value of 100 s.


***********************************************
Transient Analysis `tran': time = (0 s -> 50 s)
***********************************************

Opening the PSF file ../psf/mc1_separate/005/tran.tran.tran ...

Warning from spectre during check, during IC analysis, during transient analysis `tran', during Monte Carlo analysis `mc1'.
    WARNING (CMI-2943): Parameter checks have been ignored because the valid value for parameter 'trise' could not be found in 'C1'.
    WARNING (CMI-2943): Parameter checks have been ignored because the valid value for parameter 'trise' could not be found in 'I0.R2.CM'.
    WARNING (CMI-2943): Parameter checks have been ignored because the valid value for parameter 'trise' could not be found in 'I0.R2.CS1'.
    WARNING (CMI-2943): Parameter checks have been ignored because the valid value for parameter 'trise' could not be found in 'I0.R2.CS0'.
    WARNING (CMI-2943): Parameter checks have been ignored because the valid value for parameter 'trise' could not be found in 'I0.C3.C1'.
        Further occurrences of this warning will be suppressed.

Convergence achieved in 12 iterations.
DC simulation time: CPU = 2.556 ms, elapsed = 2.5568 ms.
Important parameter values:
    start = 0 s
    outputstart = 0 s
    stop = 50 s
    step = 50 ms
    maxstep = 500 ms
    ic = all
    useprevic = no
    skipdc = no
    reltol = 10e-06
    abstol(V) = 1 uV
    abstol(I) = 1 pA
    temp = -40 C
    tnom = 27 C
    tempeffects = all
    errpreset = conservative
    method = gear2only
    lteratio = 10
    relref = alllocal
    cmin = 0 F
    gmin = 1 pS
    rabsshort = 1 mOhm


Notice from spectre during transient analysis `tran', during Monte Carlo analysis `mc1'.
    Multithreading is disabled due to the size of the design being too small.


Output and IC/nodeset summary:
                 save   8       (current)
                 save   87      (voltage)

    tran: time = 1.301 s      (2.6 %), step = 99.75 ms     (200 m%)
    tran: time = 4.016 s     (8.03 %), step = 380.6 ms     (761 m%)
    tran: time = 6.361 s     (12.7 %), step = 500 ms          (1 %)
    tran: time = 8.861 s     (17.7 %), step = 500 ms          (1 %)
    tran: time = 11.36 s     (22.7 %), step = 500 ms          (1 %)
    tran: time = 13.86 s     (27.7 %), step = 500 ms          (1 %)
    tran: time = 16.36 s     (32.7 %), step = 500 ms          (1 %)
    tran: time = 18.86 s     (37.7 %), step = 500 ms          (1 %)
    tran: time = 21.36 s     (42.7 %), step = 500 ms          (1 %)
    tran: time = 23.86 s     (47.7 %), step = 500 ms          (1 %)
    tran: time = 26.36 s     (52.7 %), step = 500 ms          (1 %)
    tran: time = 28.86 s     (57.7 %), step = 500 ms          (1 %)
    tran: time = 31.36 s     (62.7 %), step = 500 ms          (1 %)
    tran: time = 33.86 s     (67.7 %), step = 500 ms          (1 %)
    tran: time = 36.36 s     (72.7 %), step = 500 ms          (1 %)
    tran: time = 38.86 s     (77.7 %), step = 500 ms          (1 %)
    tran: time = 41.36 s     (82.7 %), step = 500 ms          (1 %)
    tran: time = 43.86 s     (87.7 %), step = 500 ms          (1 %)
    tran: time = 46.36 s     (92.7 %), step = 500 ms          (1 %)
    tran: time = 48.86 s     (97.7 %), step = 500 ms          (1 %)
Number of accepted tran steps =             744

Maximum value achieved for any signal of each quantity: 
V: V(vout) = 3.3 V
I: I(V8:p) = 6.506 uA

~~~~~~~~~~~~~~~~~~~~~~~~~~~~~~~~~
Post-Transient Simulation Summary
~~~~~~~~~~~~~~~~~~~~~~~~~~~~~~~~~
   -   To further speed up simulation, consider
          add ++aps on command line
   -   Non-default settings that could significantly slow down simulation
          errpreset = conservative, default moderate
          reltol = 10e-06, default 100e-06 (conservative)
~~~~~~~~~~~~~~~~~~~~~~~~~~~~~~~~~


During simulation, the CPU load for active processors is :
         0 (5.0 %)       1 (6.4 %)       2 (100.0 %)     3 (8.5 %)
         4 (8.9 %)       5 (42.6 %)      6 (21.3 %)      7 (32.4 %)
         8 (50.5 %)      9 (8.8 %)      10 (11.0 %)     11 (11.9 %)
        12 (17.8 %)     13 (28.9 %)     14 (6.1 %)      15 (6.8 %)
        16 (10.4 %)     17 (8.6 %)      18 (53.5 %)     19 (51.2 %)
        20 (16.4 %)     21 (30.8 %)     22 (43.5 %)     23 (64.8 %)
        24 (70.1 %)     25 (16.5 %)     26 (47.8 %)     27 (3.4 %)
        28 (100.0 %)    29 (1.5 %)      30 (9.0 %)      31 (4.3 %)
        32 (2.0 %)      33 (3.9 %)      34 (28.0 %)     35 (40.1 %)
        36 (7.8 %)      37 (31.2 %)     38 (45.8 %)     39 (24.3 %)
        40 (100.0 %)    41 (3.2 %)      42 (6.1 %)      43 (43.9 %)
        44 (7.0 %)      45 (36.4 %)     46 (33.9 %)     47 (2.7 %)
        Total: 1314.9%
Initial condition solution time: CPU = 2.603 ms, elapsed = 2.60496 ms.
Intrinsic tran analysis time:    CPU = 448.414 ms, elapsed = 450.298 ms.
Total time required for tran analysis `tran': CPU = 453.972 ms, elapsed = 456.591 ms, util. = 99.4%.
Time accumulated: CPU = 3.58546 s, elapsed = 4.23576 s.
Peak resident memory used = 213 Mbytes.


Notice from spectre during transient analysis `tran', during Monte Carlo analysis `mc1'.
    34 warnings suppressed.

finalTimeOP: writing operating point information to rawfile.

Opening the PSF file ../psf/mc1_separate/005/finalTimeOP.info ...
modelParameter: writing model parameter values to rawfile.

Opening the PSF file ../psf/mc1_separate/005/modelParameter.info ...
element: writing instance parameter values to rawfile.

Opening the PSF file ../psf/mc1_separate/005/element.info ...
outputParameter: writing output parameter values to rawfile.

Opening the PSF file ../psf/mc1_separate/005/outputParameter.info ...
designParamVals: writing netlist parameters to rawfile.

Opening the PSFASCII file ../psf/mc1_separate/005/designParamVals.info ...
primitives: writing primitives to rawfile.

Opening the PSFASCII file ../psf/mc1_separate/005/primitives.info.primitives ...
subckts: writing subcircuits to rawfile.

Opening the PSFASCII file ../psf/mc1_separate/005/subckts.info.subckts ...
    mc1: iteration = 5           (4.04 %), step = 1            (1.01 %)
6   5.05% 

*****************************************************************************************
* 
* INFO: AMS_processOption = C35B4C3
* 
* INFO: Valid Modules  PIP VG5 HIRES
* 
*****************************************************************************************


Notice from spectre during Monte Carlo analysis `mc1'.
    V8: `period' has the unusually large value of 100 s.


***********************************************
Transient Analysis `tran': time = (0 s -> 50 s)
***********************************************

Opening the PSF file ../psf/mc1_separate/006/tran.tran.tran ...

Warning from spectre during check, during IC analysis, during transient analysis `tran', during Monte Carlo analysis `mc1'.
    WARNING (CMI-2943): Parameter checks have been ignored because the valid value for parameter 'trise' could not be found in 'C1'.
    WARNING (CMI-2943): Parameter checks have been ignored because the valid value for parameter 'trise' could not be found in 'I0.R2.CM'.
    WARNING (CMI-2943): Parameter checks have been ignored because the valid value for parameter 'trise' could not be found in 'I0.R2.CS1'.
    WARNING (CMI-2943): Parameter checks have been ignored because the valid value for parameter 'trise' could not be found in 'I0.R2.CS0'.
    WARNING (CMI-2943): Parameter checks have been ignored because the valid value for parameter 'trise' could not be found in 'I0.C3.C1'.
        Further occurrences of this warning will be suppressed.

Convergence achieved in 12 iterations.
DC simulation time: CPU = 2.601 ms, elapsed = 2.60091 ms.
Important parameter values:
    start = 0 s
    outputstart = 0 s
    stop = 50 s
    step = 50 ms
    maxstep = 500 ms
    ic = all
    useprevic = no
    skipdc = no
    reltol = 10e-06
    abstol(V) = 1 uV
    abstol(I) = 1 pA
    temp = -40 C
    tnom = 27 C
    tempeffects = all
    errpreset = conservative
    method = gear2only
    lteratio = 10
    relref = alllocal
    cmin = 0 F
    gmin = 1 pS
    rabsshort = 1 mOhm


Notice from spectre during transient analysis `tran', during Monte Carlo analysis `mc1'.
    Multithreading is disabled due to the size of the design being too small.


Output and IC/nodeset summary:
                 save   8       (current)
                 save   87      (voltage)

    tran: time = 1.292 s     (2.58 %), step = 109.3 ms     (219 m%)
    tran: time = 3.823 s     (7.65 %), step = 363.9 ms     (728 m%)
    tran: time = 6.591 s     (13.2 %), step = 500 ms          (1 %)
    tran: time = 9.091 s     (18.2 %), step = 500 ms          (1 %)
    tran: time = 11.59 s     (23.2 %), step = 500 ms          (1 %)
    tran: time = 14.09 s     (28.2 %), step = 500 ms          (1 %)
    tran: time = 16.59 s     (33.2 %), step = 500 ms          (1 %)
    tran: time = 19.09 s     (38.2 %), step = 500 ms          (1 %)
    tran: time = 21.59 s     (43.2 %), step = 500 ms          (1 %)
    tran: time = 24.09 s     (48.2 %), step = 500 ms          (1 %)
    tran: time = 26.59 s     (53.2 %), step = 500 ms          (1 %)
    tran: time = 29.09 s     (58.2 %), step = 500 ms          (1 %)
    tran: time = 31.59 s     (63.2 %), step = 500 ms          (1 %)
    tran: time = 34.09 s     (68.2 %), step = 500 ms          (1 %)
    tran: time = 36.59 s     (73.2 %), step = 500 ms          (1 %)
    tran: time = 39.09 s     (78.2 %), step = 500 ms          (1 %)
    tran: time = 41.59 s     (83.2 %), step = 500 ms          (1 %)
    tran: time = 44.09 s     (88.2 %), step = 500 ms          (1 %)
    tran: time = 46.59 s     (93.2 %), step = 500 ms          (1 %)
    tran: time = 49.09 s     (98.2 %), step = 500 ms          (1 %)
Number of accepted tran steps =             750

Maximum value achieved for any signal of each quantity: 
V: V(vout) = 3.3 V
I: I(V8:p) = 6.54 uA

~~~~~~~~~~~~~~~~~~~~~~~~~~~~~~~~~
Post-Transient Simulation Summary
~~~~~~~~~~~~~~~~~~~~~~~~~~~~~~~~~
   -   To further speed up simulation, consider
          add ++aps on command line
   -   Non-default settings that could significantly slow down simulation
          errpreset = conservative, default moderate
          reltol = 10e-06, default 100e-06 (conservative)
~~~~~~~~~~~~~~~~~~~~~~~~~~~~~~~~~


During simulation, the CPU load for active processors is :
         0 (5.1 %)       1 (6.5 %)       2 (100.0 %)     3 (8.3 %)
         4 (8.6 %)       5 (47.6 %)      6 (19.3 %)      7 (31.0 %)
         8 (55.7 %)      9 (8.7 %)      10 (10.4 %)     11 (10.8 %)
        12 (17.6 %)     13 (26.8 %)     14 (6.0 %)      15 (7.7 %)
        16 (9.3 %)      17 (9.8 %)      18 (58.6 %)     19 (45.8 %)
        20 (15.2 %)     21 (37.6 %)     22 (39.0 %)     23 (58.6 %)
        24 (72.1 %)     25 (15.5 %)     26 (46.4 %)     27 (3.9 %)
        28 (100.0 %)    29 (1.5 %)      30 (9.6 %)      31 (11.2 %)
        32 (2.2 %)      33 (3.9 %)      34 (25.5 %)     35 (35.9 %)
        36 (17.7 %)     37 (33.1 %)     38 (41.4 %)     39 (21.9 %)
        40 (100.0 %)    41 (4.8 %)      42 (5.6 %)      43 (44.5 %)
        44 (6.5 %)      45 (32.7 %)     46 (40.8 %)     47 (2.6 %)
        Total: 1323.3%
Initial condition solution time: CPU = 2.662 ms, elapsed = 2.66385 ms.
Intrinsic tran analysis time:    CPU = 450.313 ms, elapsed = 451.529 ms.
Total time required for tran analysis `tran': CPU = 455.619 ms, elapsed = 457.396 ms, util. = 99.6%.
Time accumulated: CPU = 4.08519 s, elapsed = 4.74975 s.
Peak resident memory used = 213 Mbytes.


Notice from spectre during transient analysis `tran', during Monte Carlo analysis `mc1'.
    34 warnings suppressed.

finalTimeOP: writing operating point information to rawfile.

Opening the PSF file ../psf/mc1_separate/006/finalTimeOP.info ...
modelParameter: writing model parameter values to rawfile.

Opening the PSF file ../psf/mc1_separate/006/modelParameter.info ...
element: writing instance parameter values to rawfile.

Opening the PSF file ../psf/mc1_separate/006/element.info ...
outputParameter: writing output parameter values to rawfile.

Opening the PSF file ../psf/mc1_separate/006/outputParameter.info ...
designParamVals: writing netlist parameters to rawfile.

Opening the PSFASCII file ../psf/mc1_separate/006/designParamVals.info ...
primitives: writing primitives to rawfile.

Opening the PSFASCII file ../psf/mc1_separate/006/primitives.info.primitives ...
subckts: writing subcircuits to rawfile.

Opening the PSFASCII file ../psf/mc1_separate/006/subckts.info.subckts ...
    mc1: iteration = 6           (5.05 %), step = 1            (1.01 %)
7   6.06% 

*****************************************************************************************
* 
* INFO: AMS_processOption = C35B4C3
* 
* INFO: Valid Modules  PIP VG5 HIRES
* 
*****************************************************************************************


Notice from spectre during Monte Carlo analysis `mc1'.
    V8: `period' has the unusually large value of 100 s.


***********************************************
Transient Analysis `tran': time = (0 s -> 50 s)
***********************************************

Opening the PSF file ../psf/mc1_separate/007/tran.tran.tran ...

Warning from spectre during check, during IC analysis, during transient analysis `tran', during Monte Carlo analysis `mc1'.
    WARNING (CMI-2943): Parameter checks have been ignored because the valid value for parameter 'trise' could not be found in 'C1'.
    WARNING (CMI-2943): Parameter checks have been ignored because the valid value for parameter 'trise' could not be found in 'I0.R2.CM'.
    WARNING (CMI-2943): Parameter checks have been ignored because the valid value for parameter 'trise' could not be found in 'I0.R2.CS1'.
    WARNING (CMI-2943): Parameter checks have been ignored because the valid value for parameter 'trise' could not be found in 'I0.R2.CS0'.
    WARNING (CMI-2943): Parameter checks have been ignored because the valid value for parameter 'trise' could not be found in 'I0.C3.C1'.
        Further occurrences of this warning will be suppressed.

Convergence achieved in 12 iterations.
DC simulation time: CPU = 2.547 ms, elapsed = 2.54798 ms.
Important parameter values:
    start = 0 s
    outputstart = 0 s
    stop = 50 s
    step = 50 ms
    maxstep = 500 ms
    ic = all
    useprevic = no
    skipdc = no
    reltol = 10e-06
    abstol(V) = 1 uV
    abstol(I) = 1 pA
    temp = -40 C
    tnom = 27 C
    tempeffects = all
    errpreset = conservative
    method = gear2only
    lteratio = 10
    relref = alllocal
    cmin = 0 F
    gmin = 1 pS
    rabsshort = 1 mOhm


Notice from spectre during transient analysis `tran', during Monte Carlo analysis `mc1'.
    Multithreading is disabled due to the size of the design being too small.


Output and IC/nodeset summary:
                 save   8       (current)
                 save   87      (voltage)

    tran: time = 1.268 s     (2.54 %), step = 99.77 ms     (200 m%)
    tran: time = 3.985 s     (7.97 %), step = 384.4 ms     (769 m%)
    tran: time = 6.339 s     (12.7 %), step = 500 ms          (1 %)
    tran: time = 8.839 s     (17.7 %), step = 500 ms          (1 %)
    tran: time = 11.34 s     (22.7 %), step = 500 ms          (1 %)
    tran: time = 13.84 s     (27.7 %), step = 500 ms          (1 %)
    tran: time = 16.34 s     (32.7 %), step = 500 ms          (1 %)
    tran: time = 18.84 s     (37.7 %), step = 500 ms          (1 %)
    tran: time = 21.34 s     (42.7 %), step = 500 ms          (1 %)
    tran: time = 23.84 s     (47.7 %), step = 500 ms          (1 %)
    tran: time = 26.34 s     (52.7 %), step = 500 ms          (1 %)
    tran: time = 28.84 s     (57.7 %), step = 500 ms          (1 %)
    tran: time = 31.34 s     (62.7 %), step = 500 ms          (1 %)
    tran: time = 33.84 s     (67.7 %), step = 500 ms          (1 %)
    tran: time = 36.34 s     (72.7 %), step = 500 ms          (1 %)
    tran: time = 38.84 s     (77.7 %), step = 500 ms          (1 %)
    tran: time = 41.34 s     (82.7 %), step = 500 ms          (1 %)
    tran: time = 43.84 s     (87.7 %), step = 500 ms          (1 %)
    tran: time = 46.34 s     (92.7 %), step = 500 ms          (1 %)
    tran: time = 48.84 s     (97.7 %), step = 500 ms          (1 %)
Number of accepted tran steps =             748

Maximum value achieved for any signal of each quantity: 
V: V(vout) = 3.3 V
I: I(V8:p) = 6.443 uA

~~~~~~~~~~~~~~~~~~~~~~~~~~~~~~~~~
Post-Transient Simulation Summary
~~~~~~~~~~~~~~~~~~~~~~~~~~~~~~~~~
   -   To further speed up simulation, consider
          add ++aps on command line
   -   Non-default settings that could significantly slow down simulation
          errpreset = conservative, default moderate
          reltol = 10e-06, default 100e-06 (conservative)
~~~~~~~~~~~~~~~~~~~~~~~~~~~~~~~~~


During simulation, the CPU load for active processors is :
         0 (5.7 %)       1 (6.8 %)       2 (100.0 %)     3 (7.7 %)
         4 (7.9 %)       5 (52.6 %)      6 (17.8 %)      7 (29.3 %)
         8 (59.7 %)      9 (8.2 %)      10 (9.4 %)      11 (10.2 %)
        12 (16.7 %)     13 (24.4 %)     14 (6.2 %)      15 (7.6 %)
        16 (9.9 %)      17 (10.8 %)     18 (60.7 %)     19 (42.1 %)
        20 (21.1 %)     21 (37.5 %)     22 (35.6 %)     23 (53.6 %)
        24 (65.1 %)     25 (14.2 %)     26 (42.0 %)     27 (3.7 %)
        28 (100.0 %)    29 (1.8 %)      30 (18.4 %)     31 (19.6 %)
        32 (2.0 %)      33 (4.1 %)      34 (23.3 %)     35 (32.7 %)
        36 (25.7 %)     37 (30.0 %)     38 (37.4 %)     39 (26.4 %)
        40 (100.0 %)    41 (4.3 %)      42 (5.1 %)      43 (43.2 %)
        44 (6.0 %)      45 (29.8 %)     46 (46.5 %)     47 (2.5 %)
        Total: 1325.3%
Initial condition solution time: CPU = 2.59 ms, elapsed = 2.59089 ms.
Intrinsic tran analysis time:    CPU = 450.065 ms, elapsed = 452.167 ms.
Total time required for tran analysis `tran': CPU = 455.42 ms, elapsed = 458.119 ms, util. = 99.4%.
Time accumulated: CPU = 4.58154 s, elapsed = 5.26015 s.
Peak resident memory used = 213 Mbytes.


Notice from spectre during transient analysis `tran', during Monte Carlo analysis `mc1'.
    34 warnings suppressed.

finalTimeOP: writing operating point information to rawfile.

Opening the PSF file ../psf/mc1_separate/007/finalTimeOP.info ...
modelParameter: writing model parameter values to rawfile.

Opening the PSF file ../psf/mc1_separate/007/modelParameter.info ...
element: writing instance parameter values to rawfile.

Opening the PSF file ../psf/mc1_separate/007/element.info ...
outputParameter: writing output parameter values to rawfile.

Opening the PSF file ../psf/mc1_separate/007/outputParameter.info ...
designParamVals: writing netlist parameters to rawfile.

Opening the PSFASCII file ../psf/mc1_separate/007/designParamVals.info ...
primitives: writing primitives to rawfile.

Opening the PSFASCII file ../psf/mc1_separate/007/primitives.info.primitives ...
subckts: writing subcircuits to rawfile.

Opening the PSFASCII file ../psf/mc1_separate/007/subckts.info.subckts ...
    mc1: iteration = 7           (6.06 %), step = 1            (1.01 %)
8   7.07% 

*****************************************************************************************
* 
* INFO: AMS_processOption = C35B4C3
* 
* INFO: Valid Modules  PIP VG5 HIRES
* 
*****************************************************************************************


Notice from spectre during Monte Carlo analysis `mc1'.
    V8: `period' has the unusually large value of 100 s.


***********************************************
Transient Analysis `tran': time = (0 s -> 50 s)
***********************************************

Opening the PSF file ../psf/mc1_separate/008/tran.tran.tran ...

Warning from spectre during check, during IC analysis, during transient analysis `tran', during Monte Carlo analysis `mc1'.
    WARNING (CMI-2943): Parameter checks have been ignored because the valid value for parameter 'trise' could not be found in 'C1'.
    WARNING (CMI-2943): Parameter checks have been ignored because the valid value for parameter 'trise' could not be found in 'I0.R2.CM'.
    WARNING (CMI-2943): Parameter checks have been ignored because the valid value for parameter 'trise' could not be found in 'I0.R2.CS1'.
    WARNING (CMI-2943): Parameter checks have been ignored because the valid value for parameter 'trise' could not be found in 'I0.R2.CS0'.
    WARNING (CMI-2943): Parameter checks have been ignored because the valid value for parameter 'trise' could not be found in 'I0.C3.C1'.
        Further occurrences of this warning will be suppressed.

Convergence achieved in 12 iterations.
DC simulation time: CPU = 2.543 ms, elapsed = 2.54393 ms.
Important parameter values:
    start = 0 s
    outputstart = 0 s
    stop = 50 s
    step = 50 ms
    maxstep = 500 ms
    ic = all
    useprevic = no
    skipdc = no
    reltol = 10e-06
    abstol(V) = 1 uV
    abstol(I) = 1 pA
    temp = -40 C
    tnom = 27 C
    tempeffects = all
    errpreset = conservative
    method = gear2only
    lteratio = 10
    relref = alllocal
    cmin = 0 F
    gmin = 1 pS
    rabsshort = 1 mOhm


Notice from spectre during transient analysis `tran', during Monte Carlo analysis `mc1'.
    Multithreading is disabled due to the size of the design being too small.


Output and IC/nodeset summary:
                 save   8       (current)
                 save   87      (voltage)

    tran: time = 1.251 s      (2.5 %), step = 93.8 ms      (188 m%)
    tran: time = 3.815 s     (7.63 %), step = 365.6 ms     (731 m%)
    tran: time = 6.61 s      (13.2 %), step = 500 ms          (1 %)
    tran: time = 9.11 s      (18.2 %), step = 500 ms          (1 %)
    tran: time = 11.61 s     (23.2 %), step = 500 ms          (1 %)
    tran: time = 14.11 s     (28.2 %), step = 500 ms          (1 %)
    tran: time = 16.61 s     (33.2 %), step = 500 ms          (1 %)
    tran: time = 19.11 s     (38.2 %), step = 500 ms          (1 %)
    tran: time = 21.61 s     (43.2 %), step = 500 ms          (1 %)
    tran: time = 24.11 s     (48.2 %), step = 500 ms          (1 %)
    tran: time = 26.61 s     (53.2 %), step = 500 ms          (1 %)
    tran: time = 29.11 s     (58.2 %), step = 500 ms          (1 %)
    tran: time = 31.61 s     (63.2 %), step = 500 ms          (1 %)
    tran: time = 34.11 s     (68.2 %), step = 500 ms          (1 %)
    tran: time = 36.61 s     (73.2 %), step = 500 ms          (1 %)
    tran: time = 39.11 s     (78.2 %), step = 500 ms          (1 %)
    tran: time = 41.61 s     (83.2 %), step = 500 ms          (1 %)
    tran: time = 44.11 s     (88.2 %), step = 500 ms          (1 %)
    tran: time = 46.61 s     (93.2 %), step = 500 ms          (1 %)
    tran: time = 49.11 s     (98.2 %), step = 500 ms          (1 %)
Number of accepted tran steps =             747

Maximum value achieved for any signal of each quantity: 
V: V(vout) = 3.3 V
I: I(V8:p) = 6.483 uA

~~~~~~~~~~~~~~~~~~~~~~~~~~~~~~~~~
Post-Transient Simulation Summary
~~~~~~~~~~~~~~~~~~~~~~~~~~~~~~~~~
   -   To further speed up simulation, consider
          add ++aps on command line
   -   Non-default settings that could significantly slow down simulation
          errpreset = conservative, default moderate
          reltol = 10e-06, default 100e-06 (conservative)
~~~~~~~~~~~~~~~~~~~~~~~~~~~~~~~~~


During simulation, the CPU load for active processors is :
         0 (7.2 %)       1 (6.8 %)       2 (100.0 %)     3 (8.6 %)
         4 (9.0 %)       5 (54.6 %)      6 (16.6 %)      7 (27.2 %)
         8 (63.3 %)      9 (8.9 %)      10 (8.9 %)      11 (9.8 %)
        12 (16.4 %)     13 (23.0 %)     14 (6.0 %)      15 (9.5 %)
        16 (9.6 %)      17 (11.9 %)     18 (58.0 %)     19 (44.6 %)
        20 (22.5 %)     21 (40.1 %)     22 (32.7 %)     23 (51.8 %)
        24 (59.5 %)     25 (13.1 %)     26 (38.4 %)     27 (3.6 %)
        28 (99.8 %)     29 (1.6 %)      30 (25.4 %)     31 (21.6 %)
        32 (2.0 %)      33 (4.1 %)      34 (21.8 %)     35 (30.1 %)
        36 (29.6 %)     37 (28.4 %)     38 (34.2 %)     39 (31.6 %)
        40 (100.0 %)    41 (4.3 %)      42 (4.8 %)      43 (39.5 %)
        44 (5.7 %)      45 (27.3 %)     46 (51.1 %)     47 (2.3 %)
        Total: 1326.8%
Initial condition solution time: CPU = 2.585 ms, elapsed = 2.58803 ms.
Intrinsic tran analysis time:    CPU = 451.285 ms, elapsed = 452.903 ms.
Total time required for tran analysis `tran': CPU = 456.698 ms, elapsed = 458.979 ms, util. = 99.5%.
Time accumulated: CPU = 5.08149 s, elapsed = 5.77468 s.
Peak resident memory used = 213 Mbytes.


Notice from spectre during transient analysis `tran', during Monte Carlo analysis `mc1'.
    34 warnings suppressed.

finalTimeOP: writing operating point information to rawfile.

Opening the PSF file ../psf/mc1_separate/008/finalTimeOP.info ...
modelParameter: writing model parameter values to rawfile.

Opening the PSF file ../psf/mc1_separate/008/modelParameter.info ...
element: writing instance parameter values to rawfile.

Opening the PSF file ../psf/mc1_separate/008/element.info ...
outputParameter: writing output parameter values to rawfile.

Opening the PSF file ../psf/mc1_separate/008/outputParameter.info ...
designParamVals: writing netlist parameters to rawfile.

Opening the PSFASCII file ../psf/mc1_separate/008/designParamVals.info ...
primitives: writing primitives to rawfile.

Opening the PSFASCII file ../psf/mc1_separate/008/primitives.info.primitives ...
subckts: writing subcircuits to rawfile.

Opening the PSFASCII file ../psf/mc1_separate/008/subckts.info.subckts ...
    mc1: iteration = 8           (7.07 %), step = 1            (1.01 %)
9   8.08% 

*****************************************************************************************
* 
* INFO: AMS_processOption = C35B4C3
* 
* INFO: Valid Modules  PIP VG5 HIRES
* 
*****************************************************************************************


Notice from spectre during Monte Carlo analysis `mc1'.
    V8: `period' has the unusually large value of 100 s.


***********************************************
Transient Analysis `tran': time = (0 s -> 50 s)
***********************************************

Opening the PSF file ../psf/mc1_separate/009/tran.tran.tran ...

Warning from spectre during check, during IC analysis, during transient analysis `tran', during Monte Carlo analysis `mc1'.
    WARNING (CMI-2943): Parameter checks have been ignored because the valid value for parameter 'trise' could not be found in 'C1'.
    WARNING (CMI-2943): Parameter checks have been ignored because the valid value for parameter 'trise' could not be found in 'I0.R2.CM'.
    WARNING (CMI-2943): Parameter checks have been ignored because the valid value for parameter 'trise' could not be found in 'I0.R2.CS1'.
    WARNING (CMI-2943): Parameter checks have been ignored because the valid value for parameter 'trise' could not be found in 'I0.R2.CS0'.
    WARNING (CMI-2943): Parameter checks have been ignored because the valid value for parameter 'trise' could not be found in 'I0.C3.C1'.
        Further occurrences of this warning will be suppressed.

Convergence achieved in 12 iterations.
DC simulation time: CPU = 2.715 ms, elapsed = 2.71487 ms.
Important parameter values:
    start = 0 s
    outputstart = 0 s
    stop = 50 s
    step = 50 ms
    maxstep = 500 ms
    ic = all
    useprevic = no
    skipdc = no
    reltol = 10e-06
    abstol(V) = 1 uV
    abstol(I) = 1 pA
    temp = -40 C
    tnom = 27 C
    tempeffects = all
    errpreset = conservative
    method = gear2only
    lteratio = 10
    relref = alllocal
    cmin = 0 F
    gmin = 1 pS
    rabsshort = 1 mOhm


Notice from spectre during transient analysis `tran', during Monte Carlo analysis `mc1'.
    Multithreading is disabled due to the size of the design being too small.


Output and IC/nodeset summary:
                 save   8       (current)
                 save   87      (voltage)

    tran: time = 1.281 s     (2.56 %), step = 82.52 ms     (165 m%)
    tran: time = 3.912 s     (7.82 %), step = 361.3 ms     (723 m%)
    tran: time = 6.681 s     (13.4 %), step = 500 ms          (1 %)
    tran: time = 9.181 s     (18.4 %), step = 500 ms          (1 %)
    tran: time = 11.68 s     (23.4 %), step = 500 ms          (1 %)
    tran: time = 14.18 s     (28.4 %), step = 500 ms          (1 %)
    tran: time = 16.68 s     (33.4 %), step = 500 ms          (1 %)
    tran: time = 19.18 s     (38.4 %), step = 500 ms          (1 %)
    tran: time = 21.68 s     (43.4 %), step = 500 ms          (1 %)
    tran: time = 24.18 s     (48.4 %), step = 500 ms          (1 %)
    tran: time = 26.68 s     (53.4 %), step = 500 ms          (1 %)
    tran: time = 29.18 s     (58.4 %), step = 500 ms          (1 %)
    tran: time = 31.68 s     (63.4 %), step = 500 ms          (1 %)
    tran: time = 34.18 s     (68.4 %), step = 500 ms          (1 %)
    tran: time = 36.68 s     (73.4 %), step = 500 ms          (1 %)
    tran: time = 39.18 s     (78.4 %), step = 500 ms          (1 %)
    tran: time = 41.68 s     (83.4 %), step = 500 ms          (1 %)
    tran: time = 44.18 s     (88.4 %), step = 500 ms          (1 %)
    tran: time = 46.68 s     (93.4 %), step = 500 ms          (1 %)
    tran: time = 49.18 s     (98.4 %), step = 500 ms          (1 %)
Number of accepted tran steps =             751

Maximum value achieved for any signal of each quantity: 
V: V(vout) = 3.3 V
I: I(V8:p) = 6.314 uA

~~~~~~~~~~~~~~~~~~~~~~~~~~~~~~~~~
Post-Transient Simulation Summary
~~~~~~~~~~~~~~~~~~~~~~~~~~~~~~~~~
   -   To further speed up simulation, consider
          add ++aps on command line
   -   Non-default settings that could significantly slow down simulation
          errpreset = conservative, default moderate
          reltol = 10e-06, default 100e-06 (conservative)
~~~~~~~~~~~~~~~~~~~~~~~~~~~~~~~~~


During simulation, the CPU load for active processors is :
         0 (8.5 %)       1 (6.4 %)       2 (100.0 %)     3 (8.5 %)
         4 (16.2 %)      5 (56.7 %)      6 (17.2 %)      7 (25.3 %)
         8 (59.0 %)      9 (8.3 %)      10 (8.6 %)      11 (9.1 %)
        12 (23.6 %)     13 (21.4 %)     14 (6.2 %)      15 (9.4 %)
        16 (9.6 %)      17 (17.0 %)     18 (53.6 %)     19 (42.4 %)
        20 (29.1 %)     21 (36.8 %)     22 (30.2 %)     23 (47.5 %)
        24 (54.5 %)     25 (12.3 %)     26 (35.4 %)     27 (3.3 %)
        28 (99.8 %)     29 (1.8 %)      30 (31.8 %)     31 (19.8 %)
        32 (3.3 %)      33 (3.7 %)      34 (20.0 %)     35 (27.6 %)
        36 (27.7 %)     37 (26.6 %)     38 (37.8 %)     39 (30.7 %)
        40 (100.0 %)    41 (3.9 %)      42 (4.7 %)      43 (36.4 %)
        44 (5.5 %)      45 (25.2 %)     46 (55.1 %)     47 (2.4 %)
        Total: 1320.0%
Initial condition solution time: CPU = 2.803 ms, elapsed = 2.80595 ms.
Intrinsic tran analysis time:    CPU = 467.13 ms, elapsed = 472.897 ms.
Total time required for tran analysis `tran': CPU = 472.855 ms, elapsed = 484.866 ms, util. = 97.5%.
Time accumulated: CPU = 5.59624 s, elapsed = 6.314 s.
Peak resident memory used = 213 Mbytes.


Notice from spectre during transient analysis `tran', during Monte Carlo analysis `mc1'.
    34 warnings suppressed.

finalTimeOP: writing operating point information to rawfile.

Opening the PSF file ../psf/mc1_separate/009/finalTimeOP.info ...
modelParameter: writing model parameter values to rawfile.

Opening the PSF file ../psf/mc1_separate/009/modelParameter.info ...
element: writing instance parameter values to rawfile.

Opening the PSF file ../psf/mc1_separate/009/element.info ...
outputParameter: writing output parameter values to rawfile.

Opening the PSF file ../psf/mc1_separate/009/outputParameter.info ...
designParamVals: writing netlist parameters to rawfile.

Opening the PSFASCII file ../psf/mc1_separate/009/designParamVals.info ...
primitives: writing primitives to rawfile.

Opening the PSFASCII file ../psf/mc1_separate/009/primitives.info.primitives ...
subckts: writing subcircuits to rawfile.

Opening the PSFASCII file ../psf/mc1_separate/009/subckts.info.subckts ...
    mc1: iteration = 9           (8.08 %), step = 1            (1.01 %)
10   9.09% 

*****************************************************************************************
* 
* INFO: AMS_processOption = C35B4C3
* 
* INFO: Valid Modules  PIP VG5 HIRES
* 
*****************************************************************************************


Notice from spectre during Monte Carlo analysis `mc1'.
    V8: `period' has the unusually large value of 100 s.


***********************************************
Transient Analysis `tran': time = (0 s -> 50 s)
***********************************************

Opening the PSF file ../psf/mc1_separate/010/tran.tran.tran ...

Warning from spectre during check, during IC analysis, during transient analysis `tran', during Monte Carlo analysis `mc1'.
    WARNING (CMI-2943): Parameter checks have been ignored because the valid value for parameter 'trise' could not be found in 'C1'.
    WARNING (CMI-2943): Parameter checks have been ignored because the valid value for parameter 'trise' could not be found in 'I0.R2.CM'.
    WARNING (CMI-2943): Parameter checks have been ignored because the valid value for parameter 'trise' could not be found in 'I0.R2.CS1'.
    WARNING (CMI-2943): Parameter checks have been ignored because the valid value for parameter 'trise' could not be found in 'I0.R2.CS0'.
    WARNING (CMI-2943): Parameter checks have been ignored because the valid value for parameter 'trise' could not be found in 'I0.C3.C1'.
        Further occurrences of this warning will be suppressed.

Convergence achieved in 12 iterations.
DC simulation time: CPU = 2.801 ms, elapsed = 2.80094 ms.
Important parameter values:
    start = 0 s
    outputstart = 0 s
    stop = 50 s
    step = 50 ms
    maxstep = 500 ms
    ic = all
    useprevic = no
    skipdc = no
    reltol = 10e-06
    abstol(V) = 1 uV
    abstol(I) = 1 pA
    temp = -40 C
    tnom = 27 C
    tempeffects = all
    errpreset = conservative
    method = gear2only
    lteratio = 10
    relref = alllocal
    cmin = 0 F
    gmin = 1 pS
    rabsshort = 1 mOhm


Notice from spectre during transient analysis `tran', during Monte Carlo analysis `mc1'.
    Multithreading is disabled due to the size of the design being too small.


Output and IC/nodeset summary:
                 save   8       (current)
                 save   87      (voltage)

    tran: time = 1.274 s     (2.55 %), step = 110.8 ms     (222 m%)
    tran: time = 3.846 s     (7.69 %), step = 379.2 ms     (758 m%)
    tran: time = 6.689 s     (13.4 %), step = 500 ms          (1 %)
    tran: time = 9.189 s     (18.4 %), step = 500 ms          (1 %)
    tran: time = 11.69 s     (23.4 %), step = 500 ms          (1 %)
    tran: time = 14.19 s     (28.4 %), step = 500 ms          (1 %)
    tran: time = 16.69 s     (33.4 %), step = 500 ms          (1 %)
    tran: time = 19.19 s     (38.4 %), step = 500 ms          (1 %)
    tran: time = 21.69 s     (43.4 %), step = 500 ms          (1 %)
    tran: time = 24.19 s     (48.4 %), step = 500 ms          (1 %)
    tran: time = 26.69 s     (53.4 %), step = 500 ms          (1 %)
    tran: time = 29.19 s     (58.4 %), step = 500 ms          (1 %)
    tran: time = 31.69 s     (63.4 %), step = 500 ms          (1 %)
[...]


***********************************************
Transient Analysis `tran': time = (0 s -> 50 s)
***********************************************

Opening the PSF file ../psf/mc1_separate/098/tran.tran.tran ...

Warning from spectre during check, during IC analysis, during transient analysis `tran', during Monte Carlo analysis `mc1'.
    WARNING (CMI-2943): Parameter checks have been ignored because the valid value for parameter 'trise' could not be found in 'C1'.
    WARNING (CMI-2943): Parameter checks have been ignored because the valid value for parameter 'trise' could not be found in 'I0.R2.CM'.
    WARNING (CMI-2943): Parameter checks have been ignored because the valid value for parameter 'trise' could not be found in 'I0.R2.CS1'.
    WARNING (CMI-2943): Parameter checks have been ignored because the valid value for parameter 'trise' could not be found in 'I0.R2.CS0'.
    WARNING (CMI-2943): Parameter checks have been ignored because the valid value for parameter 'trise' could not be found in 'I0.C3.C1'.
        Further occurrences of this warning will be suppressed.

Convergence achieved in 12 iterations.
DC simulation time: CPU = 2.567 ms, elapsed = 2.56705 ms.
Important parameter values:
    start = 0 s
    outputstart = 0 s
    stop = 50 s
    step = 50 ms
    maxstep = 500 ms
    ic = all
    useprevic = no
    skipdc = no
    reltol = 10e-06
    abstol(V) = 1 uV
    abstol(I) = 1 pA
    temp = -40 C
    tnom = 27 C
    tempeffects = all
    errpreset = conservative
    method = gear2only
    lteratio = 10
    relref = alllocal
    cmin = 0 F
    gmin = 1 pS
    rabsshort = 1 mOhm


Notice from spectre during transient analysis `tran', during Monte Carlo analysis `mc1'.
    Multithreading is disabled due to the size of the design being too small.


Output and IC/nodeset summary:
                 save   8       (current)
                 save   87      (voltage)

    tran: time = 1.252 s      (2.5 %), step = 99.04 ms     (198 m%)
    tran: time = 3.95 s       (7.9 %), step = 378.6 ms     (757 m%)
    tran: time = 6.282 s     (12.6 %), step = 500 ms          (1 %)
    tran: time = 8.782 s     (17.6 %), step = 500 ms          (1 %)
    tran: time = 11.28 s     (22.6 %), step = 500 ms          (1 %)
    tran: time = 13.78 s     (27.6 %), step = 500 ms          (1 %)
    tran: time = 16.28 s     (32.6 %), step = 500 ms          (1 %)
    tran: time = 18.78 s     (37.6 %), step = 500 ms          (1 %)
    tran: time = 21.28 s     (42.6 %), step = 500 ms          (1 %)
    tran: time = 23.78 s     (47.6 %), step = 500 ms          (1 %)
    tran: time = 26.28 s     (52.6 %), step = 500 ms          (1 %)
    tran: time = 28.78 s     (57.6 %), step = 500 ms          (1 %)
    tran: time = 31.28 s     (62.6 %), step = 500 ms          (1 %)
    tran: time = 33.78 s     (67.6 %), step = 500 ms          (1 %)
    tran: time = 36.28 s     (72.6 %), step = 500 ms          (1 %)
    tran: time = 38.78 s     (77.6 %), step = 500 ms          (1 %)
    tran: time = 41.28 s     (82.6 %), step = 500 ms          (1 %)
    tran: time = 43.78 s     (87.6 %), step = 500 ms          (1 %)
    tran: time = 46.28 s     (92.6 %), step = 500 ms          (1 %)
    tran: time = 48.78 s     (97.6 %), step = 500 ms          (1 %)
Number of accepted tran steps =             753

Maximum value achieved for any signal of each quantity: 
V: V(vout) = 3.3 V
I: I(V8:p) = 6.333 uA

~~~~~~~~~~~~~~~~~~~~~~~~~~~~~~~~~
Post-Transient Simulation Summary
~~~~~~~~~~~~~~~~~~~~~~~~~~~~~~~~~
   -   To further speed up simulation, consider
          add ++aps on command line
   -   Non-default settings that could significantly slow down simulation
          errpreset = conservative, default moderate
          reltol = 10e-06, default 100e-06 (conservative)
~~~~~~~~~~~~~~~~~~~~~~~~~~~~~~~~~


During simulation, the CPU load for active processors is :
         0 (28.6 %)      1 (19.6 %)      2 (42.8 %)      3 (30.1 %)
         4 (19.8 %)      5 (24.6 %)      6 (45.9 %)      7 (19.3 %)
         8 (37.1 %)      9 (15.2 %)     10 (18.2 %)     11 (27.1 %)
        12 (32.6 %)     13 (26.5 %)     14 (10.3 %)     15 (20.2 %)
        16 (25.1 %)     17 (16.8 %)     18 (24.3 %)     19 (24.5 %)
        20 (20.9 %)     21 (36.1 %)     22 (30.6 %)     23 (26.3 %)
        24 (29.3 %)     25 (15.2 %)     26 (16.9 %)     27 (9.0 %)
        28 (99.9 %)     29 (15.4 %)     30 (16.9 %)     31 (35.9 %)
        32 (10.4 %)     33 (23.8 %)     34 (20.8 %)     35 (18.0 %)
        36 (33.4 %)     37 (37.2 %)     38 (24.0 %)     39 (23.5 %)
        40 (100.0 %)    41 (9.4 %)      42 (22.2 %)     43 (24.7 %)
        44 (17.6 %)     45 (16.8 %)     46 (25.3 %)     47 (21.1 %)
        Total: 1289.3%
Initial condition solution time: CPU = 2.622 ms, elapsed = 2.62403 ms.
Intrinsic tran analysis time:    CPU = 460.303 ms, elapsed = 462.232 ms.
Total time required for tran analysis `tran': CPU = 465.386 ms, elapsed = 467.925 ms, util. = 99.5%.
Time accumulated: CPU = 50.1937 s, elapsed = 52.1833 s.
Peak resident memory used = 214 Mbytes.


Notice from spectre during transient analysis `tran', during Monte Carlo analysis `mc1'.
    34 warnings suppressed.

finalTimeOP: writing operating point information to rawfile.

Opening the PSF file ../psf/mc1_separate/098/finalTimeOP.info ...
modelParameter: writing model parameter values to rawfile.

Opening the PSF file ../psf/mc1_separate/098/modelParameter.info ...
element: writing instance parameter values to rawfile.

Opening the PSF file ../psf/mc1_separate/098/element.info ...
outputParameter: writing output parameter values to rawfile.

Opening the PSF file ../psf/mc1_separate/098/outputParameter.info ...
designParamVals: writing netlist parameters to rawfile.

Opening the PSFASCII file ../psf/mc1_separate/098/designParamVals.info ...
primitives: writing primitives to rawfile.

Opening the PSFASCII file ../psf/mc1_separate/098/primitives.info.primitives ...
subckts: writing subcircuits to rawfile.

Opening the PSFASCII file ../psf/mc1_separate/098/subckts.info.subckts ...
    mc1: iteration = 98            (98 %), step = 1            (1.01 %)
99  98.99% 

*****************************************************************************************
* 
* INFO: AMS_processOption = C35B4C3
* 
* INFO: Valid Modules  PIP VG5 HIRES
* 
*****************************************************************************************


Notice from spectre during Monte Carlo analysis `mc1'.
    V8: `period' has the unusually large value of 100 s.


***********************************************
Transient Analysis `tran': time = (0 s -> 50 s)
***********************************************

Opening the PSF file ../psf/mc1_separate/099/tran.tran.tran ...

Warning from spectre during check, during IC analysis, during transient analysis `tran', during Monte Carlo analysis `mc1'.
    WARNING (CMI-2943): Parameter checks have been ignored because the valid value for parameter 'trise' could not be found in 'C1'.
    WARNING (CMI-2943): Parameter checks have been ignored because the valid value for parameter 'trise' could not be found in 'I0.R2.CM'.
    WARNING (CMI-2943): Parameter checks have been ignored because the valid value for parameter 'trise' could not be found in 'I0.R2.CS1'.
    WARNING (CMI-2943): Parameter checks have been ignored because the valid value for parameter 'trise' could not be found in 'I0.R2.CS0'.
    WARNING (CMI-2943): Parameter checks have been ignored because the valid value for parameter 'trise' could not be found in 'I0.C3.C1'.
        Further occurrences of this warning will be suppressed.

Convergence achieved in 12 iterations.
DC simulation time: CPU = 2.549 ms, elapsed = 2.54989 ms.
Important parameter values:
    start = 0 s
    outputstart = 0 s
    stop = 50 s
    step = 50 ms
    maxstep = 500 ms
    ic = all
    useprevic = no
    skipdc = no
    reltol = 10e-06
    abstol(V) = 1 uV
    abstol(I) = 1 pA
    temp = -40 C
    tnom = 27 C
    tempeffects = all
    errpreset = conservative
    method = gear2only
    lteratio = 10
    relref = alllocal
    cmin = 0 F
    gmin = 1 pS
    rabsshort = 1 mOhm


Notice from spectre during transient analysis `tran', during Monte Carlo analysis `mc1'.
    Multithreading is disabled due to the size of the design being too small.


Output and IC/nodeset summary:
                 save   8       (current)
                 save   87      (voltage)

    tran: time = 1.351 s      (2.7 %), step = 115 ms       (230 m%)
    tran: time = 4.023 s     (8.05 %), step = 392.9 ms     (786 m%)
    tran: time = 6.403 s     (12.8 %), step = 500 ms          (1 %)
    tran: time = 8.903 s     (17.8 %), step = 500 ms          (1 %)
    tran: time = 11.4 s      (22.8 %), step = 500 ms          (1 %)
    tran: time = 13.9 s      (27.8 %), step = 500 ms          (1 %)
    tran: time = 16.4 s      (32.8 %), step = 500 ms          (1 %)
    tran: time = 18.9 s      (37.8 %), step = 500 ms          (1 %)
    tran: time = 21.4 s      (42.8 %), step = 500 ms          (1 %)
    tran: time = 23.9 s      (47.8 %), step = 500 ms          (1 %)
    tran: time = 26.4 s      (52.8 %), step = 500 ms          (1 %)
    tran: time = 28.9 s      (57.8 %), step = 500 ms          (1 %)
    tran: time = 31.4 s      (62.8 %), step = 500 ms          (1 %)
    tran: time = 33.9 s      (67.8 %), step = 500 ms          (1 %)
    tran: time = 36.4 s      (72.8 %), step = 500 ms          (1 %)
    tran: time = 38.9 s      (77.8 %), step = 500 ms          (1 %)
    tran: time = 41.4 s      (82.8 %), step = 500 ms          (1 %)
    tran: time = 43.9 s      (87.8 %), step = 500 ms          (1 %)
    tran: time = 46.4 s      (92.8 %), step = 500 ms          (1 %)
    tran: time = 48.9 s      (97.8 %), step = 500 ms          (1 %)
Number of accepted tran steps =             746

Maximum value achieved for any signal of each quantity: 
V: V(vout) = 3.3 V
I: I(V8:p) = 6.277 uA

~~~~~~~~~~~~~~~~~~~~~~~~~~~~~~~~~
Post-Transient Simulation Summary
~~~~~~~~~~~~~~~~~~~~~~~~~~~~~~~~~
   -   To further speed up simulation, consider
          add ++aps on command line
   -   Non-default settings that could significantly slow down simulation
          errpreset = conservative, default moderate
          reltol = 10e-06, default 100e-06 (conservative)
~~~~~~~~~~~~~~~~~~~~~~~~~~~~~~~~~


During simulation, the CPU load for active processors is :
         0 (28.4 %)      1 (19.4 %)      2 (42.4 %)      3 (30.8 %)
         4 (19.6 %)      5 (24.4 %)      6 (45.5 %)      7 (19.1 %)
         8 (36.7 %)      9 (15.1 %)     10 (19.0 %)     11 (26.9 %)
        12 (32.5 %)     13 (27.2 %)     14 (10.4 %)     15 (20.2 %)
        16 (25.3 %)     17 (16.7 %)     18 (24.1 %)     19 (24.3 %)
        20 (21.6 %)     21 (36.0 %)     22 (30.4 %)     23 (26.1 %)
        24 (29.1 %)     25 (15.2 %)     26 (17.7 %)     27 (8.9 %)
        28 (99.9 %)     29 (15.3 %)     30 (16.8 %)     31 (35.6 %)
        32 (10.3 %)     33 (23.6 %)     34 (20.6 %)     35 (17.8 %)
        36 (33.2 %)     37 (37.7 %)     38 (23.8 %)     39 (23.3 %)
        40 (100.0 %)    41 (9.5 %)      42 (22.0 %)     43 (24.8 %)
        44 (17.4 %)     45 (16.7 %)     46 (25.0 %)     47 (21.0 %)
        Total: 1287.3%
Initial condition solution time: CPU = 2.619 ms, elapsed = 2.62117 ms.
Intrinsic tran analysis time:    CPU = 455.206 ms, elapsed = 457.202 ms.
Total time required for tran analysis `tran': CPU = 460.329 ms, elapsed = 462.99 ms, util. = 99.4%.
Time accumulated: CPU = 50.6953 s, elapsed = 52.6998 s.
Peak resident memory used = 214 Mbytes.


Notice from spectre during transient analysis `tran', during Monte Carlo analysis `mc1'.
    34 warnings suppressed.

finalTimeOP: writing operating point information to rawfile.

Opening the PSF file ../psf/mc1_separate/099/finalTimeOP.info ...
modelParameter: writing model parameter values to rawfile.

Opening the PSF file ../psf/mc1_separate/099/modelParameter.info ...
element: writing instance parameter values to rawfile.

Opening the PSF file ../psf/mc1_separate/099/element.info ...
outputParameter: writing output parameter values to rawfile.

Opening the PSF file ../psf/mc1_separate/099/outputParameter.info ...
designParamVals: writing netlist parameters to rawfile.

Opening the PSFASCII file ../psf/mc1_separate/099/designParamVals.info ...
primitives: writing primitives to rawfile.

Opening the PSFASCII file ../psf/mc1_separate/099/primitives.info.primitives ...
subckts: writing subcircuits to rawfile.

Opening the PSFASCII file ../psf/mc1_separate/099/subckts.info.subckts ...
    mc1: iteration = 99            (99 %), step = 1            (1.01 %)
100 100.00% 

*****************************************************************************************
* 
* INFO: AMS_processOption = C35B4C3
* 
* INFO: Valid Modules  PIP VG5 HIRES
* 
*****************************************************************************************


Notice from spectre during Monte Carlo analysis `mc1'.
    V8: `period' has the unusually large value of 100 s.


***********************************************
Transient Analysis `tran': time = (0 s -> 50 s)
***********************************************

Opening the PSF file ../psf/mc1_separate/100/tran.tran.tran ...

Warning from spectre during check, during IC analysis, during transient analysis `tran', during Monte Carlo analysis `mc1'.
    WARNING (CMI-2943): Parameter checks have been ignored because the valid value for parameter 'trise' could not be found in 'C1'.
    WARNING (CMI-2943): Parameter checks have been ignored because the valid value for parameter 'trise' could not be found in 'I0.R2.CM'.
    WARNING (CMI-2943): Parameter checks have been ignored because the valid value for parameter 'trise' could not be found in 'I0.R2.CS1'.
    WARNING (CMI-2943): Parameter checks have been ignored because the valid value for parameter 'trise' could not be found in 'I0.R2.CS0'.
    WARNING (CMI-2943): Parameter checks have been ignored because the valid value for parameter 'trise' could not be found in 'I0.C3.C1'.
        Further occurrences of this warning will be suppressed.

Convergence achieved in 12 iterations.
DC simulation time: CPU = 2.648 ms, elapsed = 2.64907 ms.
Important parameter values:
    start = 0 s
    outputstart = 0 s
    stop = 50 s
    step = 50 ms
    maxstep = 500 ms
    ic = all
    useprevic = no
    skipdc = no
    reltol = 10e-06
    abstol(V) = 1 uV
    abstol(I) = 1 pA
    temp = -40 C
    tnom = 27 C
    tempeffects = all
    errpreset = conservative
    method = gear2only
    lteratio = 10
    relref = alllocal
    cmin = 0 F
    gmin = 1 pS
    rabsshort = 1 mOhm


Notice from spectre during transient analysis `tran', during Monte Carlo analysis `mc1'.
    Multithreading is disabled due to the size of the design being too small.


Output and IC/nodeset summary:
                 save   8       (current)
                 save   87      (voltage)

    tran: time = 1.268 s     (2.54 %), step = 104.7 ms     (209 m%)
    tran: time = 4.107 s     (8.21 %), step = 398.7 ms     (797 m%)
    tran: time = 6.502 s       (13 %), step = 500 ms          (1 %)
    tran: time = 9.002 s       (18 %), step = 500 ms          (1 %)
    tran: time = 11.5 s        (23 %), step = 500 ms          (1 %)
    tran: time = 14 s          (28 %), step = 500 ms          (1 %)
    tran: time = 16.5 s        (33 %), step = 500 ms          (1 %)
    tran: time = 19 s          (38 %), step = 500 ms          (1 %)
    tran: time = 21.5 s        (43 %), step = 500 ms          (1 %)
    tran: time = 24 s          (48 %), step = 500 ms          (1 %)
    tran: time = 26.5 s        (53 %), step = 500 ms          (1 %)
    tran: time = 29 s          (58 %), step = 500 ms          (1 %)
    tran: time = 31.5 s        (63 %), step = 500 ms          (1 %)
    tran: time = 34 s          (68 %), step = 500 ms          (1 %)
    tran: time = 36.5 s        (73 %), step = 500 ms          (1 %)
    tran: time = 39 s          (78 %), step = 500 ms          (1 %)
    tran: time = 41.5 s        (83 %), step = 500 ms          (1 %)
    tran: time = 44 s          (88 %), step = 500 ms          (1 %)
    tran: time = 46.5 s        (93 %), step = 500 ms          (1 %)
    tran: time = 49 s          (98 %), step = 500 ms          (1 %)
Number of accepted tran steps =             750

Maximum value achieved for any signal of each quantity: 
V: V(vout) = 3.3 V
I: I(V8:p) = 6.666 uA

~~~~~~~~~~~~~~~~~~~~~~~~~~~~~~~~~
Post-Transient Simulation Summary
~~~~~~~~~~~~~~~~~~~~~~~~~~~~~~~~~
   -   To further speed up simulation, consider
          add ++aps on command line
   -   Non-default settings that could significantly slow down simulation
          errpreset = conservative, default moderate
          reltol = 10e-06, default 100e-06 (conservative)
~~~~~~~~~~~~~~~~~~~~~~~~~~~~~~~~~


During simulation, the CPU load for active processors is :
         0 (28.2 %)      1 (19.2 %)      2 (42.0 %)      3 (30.6 %)
         4 (19.5 %)      5 (24.1 %)      6 (45.0 %)      7 (19.0 %)
         8 (37.2 %)      9 (14.9 %)     10 (19.8 %)     11 (26.6 %)
        12 (32.2 %)     13 (27.9 %)     14 (10.4 %)     15 (20.0 %)
        16 (26.1 %)     17 (16.5 %)     18 (23.9 %)     19 (24.1 %)
        20 (22.3 %)     21 (35.8 %)     22 (30.1 %)     23 (25.9 %)
        24 (28.9 %)     25 (15.3 %)     26 (18.2 %)     27 (9.0 %)
        28 (99.9 %)     29 (15.2 %)     30 (16.7 %)     31 (35.3 %)
        32 (10.3 %)     33 (23.4 %)     34 (20.5 %)     35 (17.7 %)
        36 (32.9 %)     37 (38.4 %)     38 (23.6 %)     39 (23.1 %)
        40 (100.0 %)    41 (9.6 %)      42 (21.8 %)     43 (24.5 %)
        44 (17.3 %)     45 (16.6 %)     46 (24.8 %)     47 (20.8 %)
        Total: 1285.1%
Initial condition solution time: CPU = 2.689 ms, elapsed = 2.69103 ms.
Intrinsic tran analysis time:    CPU = 451.766 ms, elapsed = 453.289 ms.
Total time required for tran analysis `tran': CPU = 457.038 ms, elapsed = 459.242 ms, util. = 99.5%.
Time accumulated: CPU = 51.1938 s, elapsed = 53.2122 s.
Peak resident memory used = 214 Mbytes.


Notice from spectre during transient analysis `tran', during Monte Carlo analysis `mc1'.
    34 warnings suppressed.

finalTimeOP: writing operating point information to rawfile.

Opening the PSF file ../psf/mc1_separate/100/finalTimeOP.info ...
modelParameter: writing model parameter values to rawfile.

Opening the PSF file ../psf/mc1_separate/100/modelParameter.info ...
element: writing instance parameter values to rawfile.

Opening the PSF file ../psf/mc1_separate/100/element.info ...
outputParameter: writing output parameter values to rawfile.

Opening the PSF file ../psf/mc1_separate/100/outputParameter.info ...
designParamVals: writing netlist parameters to rawfile.

Opening the PSFASCII file ../psf/mc1_separate/100/designParamVals.info ...
primitives: writing primitives to rawfile.

Opening the PSFASCII file ../psf/mc1_separate/100/primitives.info.primitives ...
subckts: writing subcircuits to rawfile.

Opening the PSFASCII file ../psf/mc1_separate/100/subckts.info.subckts ...
    mc1: iteration = 100          (100 %), step = 1            (1.01 %)
Total time required for montecarlo analysis `mc1': CPU = 50.7314 s, elapsed = 52.1947 s, util. = 97.2%.
Time accumulated: CPU = 51.2221 s, elapsed = 53.2541 s.
Peak resident memory used = 214 Mbytes.

Licensing Information:
Lic Summary:
[16:49:01.354984] Cdslmd servers:3000@lic08.ug.kth.se:29000@lic06.ug.kth.se
[16:49:01.355032] Feature usage summary:
[16:49:01.355033] Virtuoso_Multi_mode_Simulation


Aggregate audit (4:49:01 PM, Wed Apr 15, 2026):
Time used: CPU = 51.2 s, elapsed = 53.3 s, util. = 96.2%.
Time spent in licensing: elapsed = 55 ms.
Peak memory used = 214 Mbytes.
Simulation started at: 4:48:08 PM, Wed Apr 15, 2026, ended at: 4:49:01 PM, Wed Apr 15, 2026, with elapsed time (wall clock): 53.3 s.
spectre completes with 0 errors, 522 warnings, and 310 notices.
