
Spectre (R) Circuit Simulator
Version 24.1.0.288.isr5 64bit -- 3 Apr 2025
Copyright (C) 1989-2025 Cadence Design Systems, Inc. All rights reserved worldwide. Cadence and Spectre are registered trademarks of Cadence Design Systems, Inc. All others are the property of their respective holders.

Includes RSA BSAFE(R) Cryptographic or Security Protocol Software from RSA Security, Inc.

User: davidevi   Host: il2244vt26_davidevi   HostID: 11AC2C00   PID: 1108575
Memory  available: 3.0419 TB  physical: 3.2467 TB
Linux   : Rocky Linux release 8.10 (Green Obsidian)
CPU Type: Intel(R) Xeon(R) CPU E7-8857 v2 @ 3.00GHz
        Socket: Processors [Frequency]
        0:       0 [1200.0],  1 [1200.0],  2 [2700.0],  3 [2999.9],  4 [1200.0]
                 5 [1200.0],  6 [2999.9],  7 [1200.0],  8 [1200.0],  9 [1200.0]
                10 [1200.0], 11 [3400.0]
        1:      12 [2999.9], 13 [1200.0], 14 [2800.0], 15 [2600.0], 16 [2999.9]
                17 [1200.0], 18 [2600.0], 19 [2999.9], 20 [1200.0], 21 [2998.2]
                22 [2999.9], 23 [2500.0]
        2:      24 [2999.9], 25 [1200.0], 26 [2999.9], 27 [1200.0], 28 [2999.9]
                29 [2999.9], 30 [1200.0], 31 [1200.0], 32 [1200.0], 33 [1200.0]
                34 [1200.0], 35 [1200.0]
        3:      36 [1200.0], 37 [1200.0], 38 [2999.9], 39 [3600.0], 40 [2999.9]
                41 [1200.0], 42 [1200.0], 43 [2800.0], 44 [2400.0], 45 [1200.0]
                46 [1200.0], 47 [2500.0]
        
System load averages (1min, 5min, 15min) : 17.9 %, 16.9 %, 17.7 %
HPC is enabled


Simulating `input.scs' on il2244vt26_davidevi at 10:45:59 AM, Thur Apr 16, 2026 (process id: 1108575).
Current working directory: /home/davidevi/Desktop/myproject/Sim/VGA/VGA_1_tb/adexl/results/data/MonteCarlo.4/1/Linerity_MC/groupRunDataDir/netlist
Command line:
    /opt/tools/cadence/installs/SPECTRE241/tools/bin/spectre -64  \
        input.scs +escchars +log ../psf/spectre.out -format psfbin  \
        +rtsf -raw ../psf +aps +mt +lqtimeout 900 -maxw 5 -maxn 5  \
        +param /opt/pdk/ams/410/spectre/ams_range.lmts -env ade  \
        -ahdllibdir  \
        /home/davidevi/Desktop/myproject/Sim/VGA/VGA_1_tb/adexl/results/data/MonteCarlo.4/sharedData/Job525/ahdl/input.ahdlSimDB  \
        +logstatus  \
        +adespetkn=0001089D13A302B663E41FB550AF0DF415A679A322D5069144BF588C12F604E07EF416DC01A319B562BB63D306D8409145A373F664D843B757CC6EC912ED4F926DF079D15D9175FF34986BDD0AF002BA50FD7FD707E002A700AC1C8212F64CEB0EAF79D12EF874D3349879D118F874D334981031A51DC9365D780000367C

Simulation Id: 4BKDiscT7d1TNpYh
Licensing Information:
[10:45:59.121794] Configured Lic search path (24.01-s002): 3000@lic08.ug.kth.se:29000@lic06.ug.kth.se

Licensing Information:
[10:45:59.263977] Periodic Lic check successful

Loading /opt/tools/cadence/installs/SPECTRE241/tools.lnx86/cmi/lib/64bit/5.0/libinfineon_sh.so ...
Loading /opt/tools/cadence/installs/SPECTRE241/tools.lnx86/cmi/lib/64bit/5.0/libphilips_I_sh.so ...
Loading /opt/tools/cadence/installs/SPECTRE241/tools.lnx86/cmi/lib/64bit/5.0/libphilips_sh.so ...
Loading /opt/tools/cadence/installs/SPECTRE241/tools.lnx86/cmi/lib/64bit/5.0/libsparam_sh.so ...
Loading /opt/tools/cadence/installs/SPECTRE241/tools.lnx86/cmi/lib/64bit/5.0/libstmodels_sh.so ...

Warning from spectre.
    WARNING (SPECTRE-691): This CPU processor does not support x86 advanced vector extensions instructions. This may affect math operations and slow down the simulation.

Reading file:  /home/davidevi/Desktop/myproject/Sim/VGA/VGA_1_tb/adexl/results/data/MonteCarlo.4/1/Linerity_MC/groupRunDataDir/netlist/input.scs
Reading file:  /opt/pdk/ams/410/spectre/ams_range.lmts

Warning from spectre during read of parameter soft limits file `/opt/pdk/ams/410/spectre/ams_range.lmts', during circuit read-in.
    WARNING (SPECTRE-8360): line 1511: `ac' is an undefined primitive device.
    WARNING (SPECTRE-8360): line 1512: `ac' is an undefined primitive device.
    WARNING (SPECTRE-8360): line 1513: `ac' is an undefined primitive device.
    WARNING (SPECTRE-8360): line 1514: `ac' is an undefined primitive device.
    WARNING (SPECTRE-8360): line 1515: `ac' is an undefined primitive device.
        Further occurrences of this warning will be suppressed.

Reading file:  /opt/tools/cadence/installs/SPECTRE241/tools.lnx86/spectre/etc/configs/spectre.cfg
Reading file:  /opt/pdk/ams/410/spectre/c35/soac/soac.scs
Reading file:  /opt/pdk/ams/410/spectre/c35/soac/processOption.scs
Reading file:  /opt/pdk/ams/410/spectre/c35/soac/process.scs
Reading file:  /opt/pdk/ams/410/spectre/c35/soac/soac.va

Warning from spectre during AHDL read-in.
    WARNING (VACOMP-2435): The environment variable CDS_AHDLCMI_ENABLE is no longer supported. Therefore, the simulator will use the default compiled C code flow.

Reading link:  /opt/tools/cadence/installs/SPECTRE241/tools.lnx86/spectre/etc/ahdl/constants.h
Reading file:  /opt/tools/cadence/installs/SPECTRE241/tools.lnx86/spectre/etc/ahdl/constants.vams
Reading link:  /opt/tools/cadence/installs/SPECTRE241/tools.lnx86/spectre/etc/ahdl/discipline.h
Reading file:  /opt/tools/cadence/installs/SPECTRE241/tools.lnx86/spectre/etc/ahdl/disciplines.vams
Reading file:  /opt/pdk/ams/410/spectre/c35/processOption/C35B4C3.scs
Reading file:  /opt/pdk/ams/410/spectre/c35/soac/cmos53.scs
Reading file:  /opt/pdk/ams/410/spectre/c35/soac/res.scs
Reading file:  /opt/pdk/ams/410/spectre/c35/soac/cap.scs
Reading file:  /opt/pdk/ams/410/spectre/c35/soac/bip.scs
Reading file:  /opt/pdk/ams/410/spectre/c35/soac/ind.scs
Reading file:  /opt/pdk/ams/410/spectre/c35/soac/esddiode.scs
Time for NDB Parsing: CPU = 198.888 ms, elapsed = 282.249 ms.
Time accumulated: CPU = 406.536 ms, elapsed = 282.253 ms.
Peak resident memory used = 174 Mbytes.

Existing shared object for module modn_ahdl is up to date.
Installed compiled interface for modn_ahdl.
Existing shared object for module modp_ahdl is up to date.
Installed compiled interface for modp_ahdl.
Existing shared object for module cpoly_ahdl is up to date.
Installed compiled interface for cpoly_ahdl.
Existing shared object for module rpolyh_ahdl is up to date.
Installed compiled interface for rpolyh_ahdl.
Existing shared object for module bsource_fcab9d is up to date.
Installed compiled interface for bsource_fcab9d.
Time for Elaboration: CPU = 61.234 ms, elapsed = 63.2529 ms.
Time accumulated: CPU = 467.933 ms, elapsed = 345.667 ms.
Peak resident memory used = 188 Mbytes.


Notice from spectre during hierarchy flattening.
    The value 'psf' specified for the 'checklimitdest' option will no longer be supported in future releases. Use 'spectre -h' to see other recommended values for the 'checklimitdest' option.


*****************************************************************************************
* 
* INFO: AMS_processOption = C35B4C3
* 
* INFO: Valid Modules  PIP VG5 HIRES
* 
*****************************************************************************************


Time for EDB Visiting: CPU = 8.538 ms, elapsed = 8.53896 ms.
Time accumulated: CPU = 476.62 ms, elapsed = 354.354 ms.
Peak resident memory used = 191 Mbytes.

Loading /opt/tools/cadence/installs/SPECTRE241/tools.lnx86/mdl/lib/64bit/libSpectreEH_sh.so ...

Warning from spectre during initial setup.
    WARNING (SPECTRE-16460): SOAC_cvarm_vspsub:Specified subcircuit master `cvarm' was not found.
    WARNING (SPECTRE-16462): SOAC_cvarm_vspsub:Error in specification of subcircuit master. Assert is ignored.
    WARNING (SPECTRE-16460): SOAC_cvarm_vbs:Specified subcircuit master `cvarm' was not found.
    WARNING (SPECTRE-16462): SOAC_cvarm_vbs:Error in specification of subcircuit master. Assert is ignored.
    WARNING (SPECTRE-16460): SOAC_cvarm_vgb:Specified subcircuit master `cvarm' was not found.
    WARNING (SPECTRE-16462): SOAC_cvarm_vgb:Error in specification of subcircuit master. Assert is ignored.
    WARNING (SPECTRE-16460): SOAC_cvart_vspsub:Specified subcircuit master `cvart' was not found.
    WARNING (SPECTRE-16462): SOAC_cvart_vspsub:Error in specification of subcircuit master. Assert is ignored.
    WARNING (SPECTRE-16460): SOAC_cvart_vbs:Specified subcircuit master `cvart' was not found.
        Further occurrences of this warning will be suppressed.
    WARNING (SPECTRE-16462): SOAC_cvart_vbs:Error in specification of subcircuit master. Assert is ignored.
        Further occurrences of this warning will be suppressed.
Notice from spectre during topology check.
    Only one connection to the following 52 nodes:
        I0.MN6.psub!
        I0.MN5.psub!
        I0.MN4.psub!
        I0.MN3.psub!
        I0.MN2.psub!
        Further occurrences of this notice will be suppressed.
Notice from spectre during initial setup.
    Multithreading is disabled due to the size of the design being too small.


Netlist title:
        // Point Netlist Generated on: Apr 16 10:45:58 2026


Global user options:
         psfversion = 1.4.0
            vabstol = 1e-06
            iabstol = 1e-12
               temp = 27
           homotopy = 5
              limit = delta
         compatible = spice2
               gmin = 1e-12
             rforce = 1
           maxnotes = 5
           maxwarns = 5
             digits = 5
               cols = 80
             pivrel = 0.001
           sensfile = ../psf/sens.output
     checklimitdest = psf
     enable_pre_ver = yes
      ignorezerovar = yes
               save = allpub
             reltol = 0.0001
               tnom = 27
             scalem = 1
              scale = 1

Scoped user options:

Circuit inventory:
              nodes 84
            bsim3v3 33    
     bsource_fcab9d 2     
          capacitor 38    
         cpoly_ahdl 17    
            isource 1     
          modn_ahdl 19    
          modp_ahdl 14    
           resistor 1     
        rpolyh_ahdl 2     
            vsource 8     

Analysis and control statement inventory:
                 dc 1     
               info 8     
         montecarlo 1     
               tran 1     

Output statements:
             .probe 0     
           .measure 0     
               save 0     

Design checks inventory:
          paramtest 53    
             assert 175   


Notice from spectre during initial setup.
    APS enabled.
    1 notice suppressed.
    72 warnings suppressed.

Time for parsing: CPU = 18.959 ms, elapsed = 639.405 ms.
Time accumulated: CPU = 495.685 ms, elapsed = 993.863 ms.
Peak resident memory used = 197 Mbytes.

~~~~~~~~~~~~~~~~~~~~~~
Pre-Simulation Summary
~~~~~~~~~~~~~~~~~~~~~~
   -   (APS) Multi-threading. The recommended number of threads is 1, consider adding +mt=1 on command line.
~~~~~~~~~~~~~~~~~~~~~~

*************************************************
Monte Carlo Analysis `mc1': iteration = (1 -> 13)
*************************************************
Important parameter values:
    seed = 12345
    sampling = lds
    variations = all
    firstrun = 1
    numruns = 13
    nullmfactorcorrelation = no
    donominal = yes
    method = standard

**** Performing nominal run for `mc1'

******************
DC Analysis `dcOp'
******************

Notice from spectre during DC analysis `dcOp', during Monte Carlo analysis `mc1'.
    No checklimit analysis defined for asserts. A default checklimit analysis 'SpectreChecklimitAnal' has been created with all asserts enabled.


Opening the PSF file ../psf/nom/dcOp.dc ...
Important parameter values:
    reltol = 100e-06
    abstol(V) = 1 uV
    abstol(I) = 1 pA
    temp = 27 C
    tnom = 27 C
    tempeffects = all
    gmindc = 1 pS
    rabsshort = 1 mOhm

Notice from spectre during DC analysis `dcOp', during Monte Carlo analysis `mc1'.
    Bad pivoting is found during DC analysis. Option dc_pivot_check=yes is recommended for possible improvement of convergence.


Maximum value achieved for any signal of each quantity: 
V: V(net2) = 3.3 V
I: I(V0:p) = 6.456 uA
Maximum value of each quantity, excluding Verilog-A modules or dangling current sources:
V: V(vout_filt) = 1.6 V
I: I(V0:p) = 6.456 uA

Warning from spectre during check, during DC analysis `dcOp', during Monte Carlo analysis `mc1'.
    WARNING (CMI-2943): Parameter checks have been ignored because the valid value for parameter 'trise' could not be found in 'C1'.
    WARNING (CMI-2943): Parameter checks have been ignored because the valid value for parameter 'trise' could not be found in 'I0.R2.CM'.
    WARNING (CMI-2943): Parameter checks have been ignored because the valid value for parameter 'trise' could not be found in 'I0.R2.CS1'.
    WARNING (CMI-2943): Parameter checks have been ignored because the valid value for parameter 'trise' could not be found in 'I0.R2.CS0'.
    WARNING (CMI-2943): Parameter checks have been ignored because the valid value for parameter 'trise' could not be found in 'I0.C8<3>.C1'.
        Further occurrences of this warning will be suppressed.

Convergence achieved in 17 iterations.
DC simulation time: CPU = 85.648 ms, elapsed = 90.1651 ms.
Total time required for dc analysis `dcOp': CPU = 85.734 ms, elapsed = 90.2479 ms, util. = 95%.
Time accumulated: CPU = 607.191 ms, elapsed = 1.1113 s.
Peak resident memory used = 206 Mbytes.


Notice from spectre during Monte Carlo analysis `mc1'.
    34 warnings suppressed.

dcOpInfo: writing operating point information to rawfile.

Opening the PSF file ../psf/nom/dcOpInfo.info ...

************************************************
Transient Analysis `tran': time = (0 s -> 40 ms)
************************************************

Notice from spectre during IC analysis, during transient analysis `tran', during Monte Carlo analysis `mc1'.
    Bad pivoting is found during DC analysis. Option dc_pivot_check=yes is recommended for possible improvement of convergence.
Warning from spectre during check, during IC analysis, during transient analysis `tran', during Monte Carlo analysis `mc1'.
    WARNING (CMI-2943): Parameter checks have been ignored because the valid value for parameter 'trise' could not be found in 'C1'.
    WARNING (CMI-2943): Parameter checks have been ignored because the valid value for parameter 'trise' could not be found in 'I0.R2.CM'.
    WARNING (CMI-2943): Parameter checks have been ignored because the valid value for parameter 'trise' could not be found in 'I0.R2.CS1'.
    WARNING (CMI-2943): Parameter checks have been ignored because the valid value for parameter 'trise' could not be found in 'I0.R2.CS0'.
    WARNING (CMI-2943): Parameter checks have been ignored because the valid value for parameter 'trise' could not be found in 'I0.C8<3>.C1'.
        Further occurrences of this warning will be suppressed.

Convergence achieved in 2 iterations.
DC simulation time: CPU = 1.068 ms, elapsed = 1.06788 ms.

Opening the PSF file ../psf/nom/tran.tran.tran ...
Important parameter values:
    start = 0 s
    outputstart = 0 s
    stop = 40 ms
    step = 40 us
    maxstep = 400 us
    ic = all
    useprevic = no
    skipdc = no
    reltol = 10e-06
    abstol(V) = 1 uV
    abstol(I) = 1 pA
    temp = 27 C
    tnom = 27 C
    tempeffects = all
    errpreset = conservative
    method = gear2only
    lteratio = 10
    relref = alllocal
    cmin = 0 F
    gmin = 1 pS
    rabsshort = 1 mOhm


Notice from spectre during transient analysis `tran', during Monte Carlo analysis `mc1'.
    Multithreading is disabled due to the size of the design being too small.


Output and IC/nodeset summary:
                 save   8       (current)
                 save   83      (voltage)

    tran: time = 1.02 ms     (2.55 %), step = 48.49 us     (121 m%)
    tran: time = 3.034 ms    (7.59 %), step = 47.44 us     (119 m%)
    tran: time = 5.001 ms    (12.5 %), step = 50 us        (125 m%)
    tran: time = 7.014 ms    (17.5 %), step = 49.01 us     (123 m%)
    tran: time = 9.028 ms    (22.6 %), step = 47.86 us     (120 m%)
    tran: time = 11.04 ms    (27.6 %), step = 46.95 us     (117 m%)
    tran: time = 13.01 ms    (32.5 %), step = 49.57 us     (124 m%)
    tran: time = 15.02 ms    (37.6 %), step = 48.33 us     (121 m%)
    tran: time = 17.04 ms    (42.6 %), step = 47.31 us     (118 m%)
    tran: time = 19 ms       (47.5 %), step = 50 us        (125 m%)
    tran: time = 21.02 ms    (52.5 %), step = 48.84 us     (122 m%)
    tran: time = 23.03 ms    (57.6 %), step = 47.71 us     (119 m%)
    tran: time = 25.04 ms    (62.6 %), step = 46.84 us     (117 m%)
    tran: time = 27.01 ms    (67.5 %), step = 49.38 us     (123 m%)
    tran: time = 29.02 ms    (72.6 %), step = 48.18 us     (120 m%)
    tran: time = 31.04 ms    (77.6 %), step = 47.19 us     (118 m%)
    tran: time = 33 ms       (82.5 %), step = 49.99 us     (125 m%)
    tran: time = 35.02 ms    (87.5 %), step = 48.67 us     (122 m%)
    tran: time = 37.03 ms    (92.6 %), step = 47.58 us     (119 m%)
    tran: time = 39.05 ms    (97.6 %), step = 46.73 us     (117 m%)
Number of accepted tran steps =             851

Maximum value achieved for any signal of each quantity: 
V: V(net2) = 3.3 V
I: I(V0:p) = 6.456 uA
Maximum value of each quantity, excluding Verilog-A modules or dangling current sources:
V: V(vout_filt) = 1.614 V
I: I(V0:p) = 6.456 uA

~~~~~~~~~~~~~~~~~~~~~~~~~~~~~~~~~
Post-Transient Simulation Summary
~~~~~~~~~~~~~~~~~~~~~~~~~~~~~~~~~
   -   To further speed up simulation, consider
          add ++aps on command line
   -   Non-default settings that could significantly slow down simulation
          errpreset = conservative, default moderate
          reltol = 10e-06, default 100e-06 (conservative)
~~~~~~~~~~~~~~~~~~~~~~~~~~~~~~~~~


During simulation, the CPU load for active processors is :
         0 (19.6 %)      1 (36.1 %)      2 (5.9 %)       3 (38.7 %)
         4 (2.0 %)       5 (3.3 %)       6 (99.4 %)      7 (3.9 %)
         8 (2.6 %)       9 (5.8 %)      10 (5.2 %)      11 (2.0 %)
        12 (15.4 %)     13 (2.6 %)      14 (11.5 %)     15 (1.3 %)
        16 (34.0 %)     17 (11.6 %)     18 (49.7 %)     19 (100.0 %)
        20 (1.3 %)      21 (6.5 %)      22 (1.9 %)      23 (1.9 %)
        24 (100.0 %)    25 (3.2 %)      26 (12.7 %)     27 (2.6 %)
        28 (20.0 %)     29 (100.0 %)    30 (7.7 %)      31 (5.3 %)
        32 (2.0 %)      33 (29.7 %)     34 (62.2 %)     35 (8.4 %)
        36 (3.9 %)      37 (3.9 %)      38 (62.4 %)     39 (2.6 %)
        40 (100.0 %)    41 (5.9 %)      42 (31.6 %)     43 (5.2 %)
        44 (4.5 %)      45 (4.5 %)      46 (7.0 %)      47 (5.3 %)
        Total: 1052.8%
Initial condition solution time: CPU = 1.103 ms, elapsed = 1.10507 ms.
Intrinsic tran analysis time:    CPU = 484.303 ms, elapsed = 485.937 ms.
Total time required for tran analysis `tran': CPU = 487.752 ms, elapsed = 490.245 ms, util. = 99.5%.
Time accumulated: CPU = 1.10368 s, elapsed = 1.61354 s.
Peak resident memory used = 209 Mbytes.


Notice from spectre during transient analysis `tran', during Monte Carlo analysis `mc1'.
    34 warnings suppressed.

finalTimeOP: writing operating point information to rawfile.

Opening the PSF file ../psf/nom/finalTimeOP.info ...
modelParameter: writing model parameter values to rawfile.

Opening the PSF file ../psf/nom/modelParameter.info ...
element: writing instance parameter values to rawfile.

Opening the PSF file ../psf/nom/element.info ...
outputParameter: writing output parameter values to rawfile.

Opening the PSF file ../psf/nom/outputParameter.info ...
designParamVals: writing netlist parameters to rawfile.

Opening the PSFASCII file ../psf/nom/designParamVals.info ...
primitives: writing primitives to rawfile.

Opening the PSFASCII file ../psf/nom/primitives.info.primitives ...
subckts: writing subcircuits to rawfile.

Opening the PSFASCII file ../psf/nom/subckts.info.subckts ...
Opening iteration number and data-directory mapping file:  /home/davidevi/Desktop/myproject/Sim/VGA/VGA_1_tb/adexl/results/data/MonteCarlo.4/1/Linerity_MC/groupRunDataDir/netlist/../psf/mc1.mapping

Statistical parameters:
    Defined process parameters: 629
    Defined mismatch parameters (subckt based): 86
    Non-referenced mismatch parameters: 80
    Number of random variables: 714
    Gaussian truncation for process parameters: 4.00 sigma
    Gaussian truncation for mismatch parameters: 4.00 sigma


Opening the PSF file ../psf/mc1_dcOp.montecarlo ...

Opening the PSF file ../psf/mc1_dcOpInfo.montecarlo ...

Opening the PSF file ../psf/mc1_tran.montecarlo ...

Opening the PSF file ../psf/mc1_finalTimeOP.montecarlo ...

Opening the PSF file ../psf/mc1_modelParameter.montecarlo ...

Opening the PSF file ../psf/mc1_element.montecarlo ...

Opening the PSF file ../psf/mc1_outputParameter.montecarlo ...

Opening the PSF file ../psf/mc1_designParamVals.montecarlo ...

Opening the PSF file ../psf/mc1_primitives.montecarlo ...

Opening the PSF file ../psf/mc1_subckts.montecarlo ...

**** Performing monte carlo loop for `mc1'

1   0.00% 

*****************************************************************************************
* 
* INFO: AMS_processOption = C35B4C3
* 
* INFO: Valid Modules  PIP VG5 HIRES
* 
*****************************************************************************************


******************
DC Analysis `dcOp'
******************

Opening the PSF file ../psf/mc1_separate/001/dcOp.dc ...
Important parameter values:
    reltol = 100e-06
    abstol(V) = 1 uV
    abstol(I) = 1 pA
    temp = 27 C
    tnom = 27 C
    tempeffects = all
    gmindc = 1 pS
    rabsshort = 1 mOhm

Notice from spectre at iteration = 1 during DC analysis `dcOp', during Monte Carlo analysis `mc1'.
    Bad pivoting is found during DC analysis. Option dc_pivot_check=yes is recommended for possible improvement of convergence.


Maximum value achieved for any signal of each quantity: 
V: V(net2) = 3.3 V
I: I(V0:p) = 6.442 uA
Maximum value of each quantity, excluding Verilog-A modules or dangling current sources:
V: V(net1) = 1.6 V
I: I(V0:p) = 6.442 uA

Warning from spectre at iteration = 1 during check, during DC analysis `dcOp', during Monte Carlo analysis `mc1'.
    WARNING (CMI-2943): Parameter checks have been ignored because the valid value for parameter 'trise' could not be found in 'C1'.
    WARNING (CMI-2943): Parameter checks have been ignored because the valid value for parameter 'trise' could not be found in 'I0.R2.CM'.
    WARNING (CMI-2943): Parameter checks have been ignored because the valid value for parameter 'trise' could not be found in 'I0.R2.CS1'.
    WARNING (CMI-2943): Parameter checks have been ignored because the valid value for parameter 'trise' could not be found in 'I0.R2.CS0'.
    WARNING (CMI-2943): Parameter checks have been ignored because the valid value for parameter 'trise' could not be found in 'I0.C8<3>.C1'.
        Further occurrences of this warning will be suppressed.

Convergence achieved in 19 iterations.
DC simulation time: CPU = 5.534 ms, elapsed = 6.92105 ms.
Total time required for dc analysis `dcOp': CPU = 6.028 ms, elapsed = 7.4141 ms, util. = 81.3%.
Time accumulated: CPU = 1.19519 s, elapsed = 1.72351 s.
Peak resident memory used = 212 Mbytes.


Notice from spectre at iteration = 1 during Monte Carlo analysis `mc1'.
    34 warnings suppressed.

dcOpInfo: writing operating point information to rawfile.

Opening the PSF file ../psf/mc1_separate/001/dcOpInfo.info ...

************************************************
Transient Analysis `tran': time = (0 s -> 40 ms)
************************************************

Opening the PSF file ../psf/mc1_separate/001/tran.tran.tran ...

Notice from spectre at iteration = 1 during IC analysis, during transient analysis `tran', during Monte Carlo analysis `mc1'.
    Bad pivoting is found during DC analysis. Option dc_pivot_check=yes is recommended for possible improvement of convergence.
Warning from spectre at iteration = 1 during check, during IC analysis, during transient analysis `tran', during Monte Carlo analysis `mc1'.
    WARNING (CMI-2943): Parameter checks have been ignored because the valid value for parameter 'trise' could not be found in 'C1'.
    WARNING (CMI-2943): Parameter checks have been ignored because the valid value for parameter 'trise' could not be found in 'I0.R2.CM'.
    WARNING (CMI-2943): Parameter checks have been ignored because the valid value for parameter 'trise' could not be found in 'I0.R2.CS1'.
    WARNING (CMI-2943): Parameter checks have been ignored because the valid value for parameter 'trise' could not be found in 'I0.R2.CS0'.
    WARNING (CMI-2943): Parameter checks have been ignored because the valid value for parameter 'trise' could not be found in 'I0.C8<3>.C1'.
        Further occurrences of this warning will be suppressed.

Convergence achieved in 19 iterations.
DC simulation time: CPU = 2.704 ms, elapsed = 2.7051 ms.
Important parameter values:
    start = 0 s
    outputstart = 0 s
    stop = 40 ms
    step = 40 us
    maxstep = 400 us
    ic = all
    useprevic = no
    skipdc = no
    reltol = 10e-06
    abstol(V) = 1 uV
    abstol(I) = 1 pA
    temp = 27 C
    tnom = 27 C
    tempeffects = all
    errpreset = conservative
    method = gear2only
    lteratio = 10
    relref = alllocal
    cmin = 0 F
    gmin = 1 pS
    rabsshort = 1 mOhm


Notice from spectre at iteration = 1 during transient analysis `tran', during Monte Carlo analysis `mc1'.
    Multithreading is disabled due to the size of the design being too small.


Output and IC/nodeset summary:
                 save   8       (current)
                 save   83      (voltage)

    tran: time = 1.02 ms     (2.55 %), step = 48.49 us     (121 m%)
    tran: time = 3.034 ms    (7.58 %), step = 47.44 us     (119 m%)
    tran: time = 5.001 ms    (12.5 %), step = 50 us        (125 m%)
    tran: time = 7.014 ms    (17.5 %), step = 49.02 us     (123 m%)
    tran: time = 9.028 ms    (22.6 %), step = 47.87 us     (120 m%)
    tran: time = 11.04 ms    (27.6 %), step = 46.96 us     (117 m%)
    tran: time = 13.01 ms    (32.5 %), step = 49.59 us     (124 m%)
    tran: time = 15.02 ms    (37.6 %), step = 48.35 us     (121 m%)
    tran: time = 17.04 ms    (42.6 %), step = 47.33 us     (118 m%)
    tran: time = 19 ms       (47.5 %), step = 50 us        (125 m%)
    tran: time = 21.02 ms    (52.5 %), step = 48.87 us     (122 m%)
    tran: time = 23.03 ms    (57.6 %), step = 47.74 us     (119 m%)
    tran: time = 25.04 ms    (62.6 %), step = 46.86 us     (117 m%)
    tran: time = 27.01 ms    (67.5 %), step = 49.43 us     (124 m%)
    tran: time = 29.02 ms    (72.6 %), step = 48.22 us     (121 m%)
    tran: time = 31.04 ms    (77.6 %), step = 47.22 us     (118 m%)
    tran: time = 33 ms       (82.5 %), step = 50 us        (125 m%)
    tran: time = 35.02 ms    (87.5 %), step = 48.72 us     (122 m%)
    tran: time = 37.03 ms    (92.6 %), step = 47.62 us     (119 m%)
    tran: time = 39.04 ms    (97.6 %), step = 46.77 us     (117 m%)
Number of accepted tran steps =             851

Maximum value achieved for any signal of each quantity: 
V: V(net2) = 3.3 V
I: I(V0:p) = 6.442 uA
Maximum value of each quantity, excluding Verilog-A modules or dangling current sources:
V: V(vout_filt) = 1.614 V
I: I(V0:p) = 6.442 uA

~~~~~~~~~~~~~~~~~~~~~~~~~~~~~~~~~
Post-Transient Simulation Summary
~~~~~~~~~~~~~~~~~~~~~~~~~~~~~~~~~
   -   To further speed up simulation, consider
          add ++aps on command line
   -   Non-default settings that could significantly slow down simulation
          errpreset = conservative, default moderate
          reltol = 10e-06, default 100e-06 (conservative)
~~~~~~~~~~~~~~~~~~~~~~~~~~~~~~~~~


During simulation, the CPU load for active processors is :
         0 (15.2 %)      1 (27.1 %)      2 (6.6 %)       3 (55.1 %)
         4 (3.3 %)       5 (9.9 %)       6 (99.5 %)      7 (19.2 %)
         8 (7.9 %)       9 (5.6 %)      10 (4.7 %)      11 (4.2 %)
        12 (12.0 %)     13 (2.3 %)      14 (14.8 %)     15 (1.4 %)
        16 (25.2 %)     17 (8.8 %)      18 (63.1 %)     19 (100.0 %)
        21 (4.7 %)      22 (1.4 %)      23 (1.9 %)      24 (100.0 %)
        25 (2.8 %)      26 (9.2 %)      27 (2.3 %)      28 (20.4 %)
        29 (100.0 %)    30 (6.0 %)      31 (4.2 %)      32 (4.7 %)
        33 (21.5 %)     34 (71.4 %)     35 (7.8 %)      36 (6.6 %)
        37 (4.2 %)      38 (72.4 %)     39 (1.9 %)      40 (100.0 %)
        41 (7.5 %)      42 (23.3 %)     43 (4.7 %)      44 (3.7 %)
        45 (3.7 %)      46 (6.0 %)      47 (4.7 %)      
        Total: 1084.0%
Initial condition solution time: CPU = 2.745 ms, elapsed = 2.74801 ms.
Intrinsic tran analysis time:    CPU = 481.758 ms, elapsed = 483.126 ms.
Total time required for tran analysis `tran': CPU = 486.296 ms, elapsed = 488.213 ms, util. = 99.6%.
Time accumulated: CPU = 1.68802 s, elapsed = 2.22066 s.
Peak resident memory used = 213 Mbytes.


Notice from spectre during transient analysis `tran', during Monte Carlo analysis `mc1'.
    34 warnings suppressed.

finalTimeOP: writing operating point information to rawfile.

Opening the PSF file ../psf/mc1_separate/001/finalTimeOP.info ...
modelParameter: writing model parameter values to rawfile.

Opening the PSF file ../psf/mc1_separate/001/modelParameter.info ...
element: writing instance parameter values to rawfile.

Opening the PSF file ../psf/mc1_separate/001/element.info ...
outputParameter: writing output parameter values to rawfile.

Opening the PSF file ../psf/mc1_separate/001/outputParameter.info ...
designParamVals: writing netlist parameters to rawfile.

Opening the PSFASCII file ../psf/mc1_separate/001/designParamVals.info ...
primitives: writing primitives to rawfile.

Opening the PSFASCII file ../psf/mc1_separate/001/primitives.info.primitives ...
subckts: writing subcircuits to rawfile.

Opening the PSFASCII file ../psf/mc1_separate/001/subckts.info.subckts ...
2   8.33% 

*****************************************************************************************
* 
* INFO: AMS_processOption = C35B4C3
* 
* INFO: Valid Modules  PIP VG5 HIRES
* 
*****************************************************************************************


******************
DC Analysis `dcOp'
******************

Opening the PSF file ../psf/mc1_separate/002/dcOp.dc ...
Important parameter values:
    reltol = 100e-06
    abstol(V) = 1 uV
    abstol(I) = 1 pA
    temp = 27 C
    tnom = 27 C
    tempeffects = all
    gmindc = 1 pS
    rabsshort = 1 mOhm

Notice from spectre during DC analysis `dcOp', during Monte Carlo analysis `mc1'.
    Bad pivoting is found during DC analysis. Option dc_pivot_check=yes is recommended for possible improvement of convergence.


Maximum value achieved for any signal of each quantity: 
V: V(net2) = 3.3 V
I: I(V0:p) = 6.465 uA
Maximum value of each quantity, excluding Verilog-A modules or dangling current sources:
V: V(net1) = 1.6 V
I: I(V0:p) = 6.465 uA

Warning from spectre during check, during DC analysis `dcOp', during Monte Carlo analysis `mc1'.
    WARNING (CMI-2943): Parameter checks have been ignored because the valid value for parameter 'trise' could not be found in 'C1'.
    WARNING (CMI-2943): Parameter checks have been ignored because the valid value for parameter 'trise' could not be found in 'I0.R2.CM'.
    WARNING (CMI-2943): Parameter checks have been ignored because the valid value for parameter 'trise' could not be found in 'I0.R2.CS1'.
    WARNING (CMI-2943): Parameter checks have been ignored because the valid value for parameter 'trise' could not be found in 'I0.R2.CS0'.
    WARNING (CMI-2943): Parameter checks have been ignored because the valid value for parameter 'trise' could not be found in 'I0.C8<3>.C1'.
        Further occurrences of this warning will be suppressed.

Convergence achieved in 19 iterations.
DC simulation time: CPU = 4.83 ms, elapsed = 6.25801 ms.
Total time required for dc analysis `dcOp': CPU = 5.125 ms, elapsed = 6.55317 ms, util. = 78.2%.
Time accumulated: CPU = 1.73353 s, elapsed = 2.28106 s.
Peak resident memory used = 213 Mbytes.


Notice from spectre during Monte Carlo analysis `mc1'.
    34 warnings suppressed.

dcOpInfo: writing operating point information to rawfile.

Opening the PSF file ../psf/mc1_separate/002/dcOpInfo.info ...

************************************************
Transient Analysis `tran': time = (0 s -> 40 ms)
************************************************

Opening the PSF file ../psf/mc1_separate/002/tran.tran.tran ...

Notice from spectre during IC analysis, during transient analysis `tran', during Monte Carlo analysis `mc1'.
    Bad pivoting is found during DC analysis. Option dc_pivot_check=yes is recommended for possible improvement of convergence.
Warning from spectre during check, during IC analysis, during transient analysis `tran', during Monte Carlo analysis `mc1'.
    WARNING (CMI-2943): Parameter checks have been ignored because the valid value for parameter 'trise' could not be found in 'C1'.
    WARNING (CMI-2943): Parameter checks have been ignored because the valid value for parameter 'trise' could not be found in 'I0.R2.CM'.
    WARNING (CMI-2943): Parameter checks have been ignored because the valid value for parameter 'trise' could not be found in 'I0.R2.CS1'.
    WARNING (CMI-2943): Parameter checks have been ignored because the valid value for parameter 'trise' could not be found in 'I0.R2.CS0'.
    WARNING (CMI-2943): Parameter checks have been ignored because the valid value for parameter 'trise' could not be found in 'I0.C8<3>.C1'.
        Further occurrences of this warning will be suppressed.

Convergence achieved in 19 iterations.
DC simulation time: CPU = 2.79 ms, elapsed = 2.79117 ms.
Important parameter values:
    start = 0 s
    outputstart = 0 s
    stop = 40 ms
    step = 40 us
    maxstep = 400 us
    ic = all
    useprevic = no
    skipdc = no
    reltol = 10e-06
    abstol(V) = 1 uV
    abstol(I) = 1 pA
    temp = 27 C
    tnom = 27 C
    tempeffects = all
    errpreset = conservative
    method = gear2only
    lteratio = 10
    relref = alllocal
    cmin = 0 F
    gmin = 1 pS
    rabsshort = 1 mOhm


Notice from spectre during transient analysis `tran', during Monte Carlo analysis `mc1'.
    Multithreading is disabled due to the size of the design being too small.


Output and IC/nodeset summary:
                 save   8       (current)
                 save   83      (voltage)

    tran: time = 1.022 ms    (2.55 %), step = 48.34 us     (121 m%)
    tran: time = 3.036 ms    (7.59 %), step = 47.32 us     (118 m%)
    tran: time = 5.003 ms    (12.5 %), step = 50 us        (125 m%)
    tran: time = 7.016 ms    (17.5 %), step = 48.86 us     (122 m%)
    tran: time = 9.03 ms     (22.6 %), step = 47.74 us     (119 m%)
    tran: time = 11.04 ms    (27.6 %), step = 46.86 us     (117 m%)
    tran: time = 13.01 ms    (32.5 %), step = 49.42 us     (124 m%)
    tran: time = 15.02 ms    (37.6 %), step = 48.22 us     (121 m%)
    tran: time = 17.04 ms    (42.6 %), step = 47.23 us     (118 m%)
    tran: time = 19 ms       (47.5 %), step = 50 us        (125 m%)
    tran: time = 21.02 ms    (52.5 %), step = 48.73 us     (122 m%)
    tran: time = 23.03 ms    (57.6 %), step = 47.63 us     (119 m%)
    tran: time = 25.04 ms    (62.6 %), step = 46.78 us     (117 m%)
    tran: time = 27.01 ms    (67.5 %), step = 49.28 us     (123 m%)
    tran: time = 29.02 ms    (72.6 %), step = 48.1 us      (120 m%)
    tran: time = 31.04 ms    (77.6 %), step = 47.13 us     (118 m%)
    tran: time = 33.01 ms    (82.5 %), step = 49.9 us      (125 m%)
    tran: time = 35.02 ms    (87.5 %), step = 48.61 us     (122 m%)
    tran: time = 37.03 ms    (92.6 %), step = 47.53 us     (119 m%)
    tran: time = 39.05 ms    (97.6 %), step = 46.7 us      (117 m%)
Number of accepted tran steps =             851

Maximum value achieved for any signal of each quantity: 
V: V(net2) = 3.3 V
I: I(V0:p) = 6.465 uA
Maximum value of each quantity, excluding Verilog-A modules or dangling current sources:
V: V(vout_filt) = 1.614 V
I: I(V0:p) = 6.465 uA

~~~~~~~~~~~~~~~~~~~~~~~~~~~~~~~~~
Post-Transient Simulation Summary
~~~~~~~~~~~~~~~~~~~~~~~~~~~~~~~~~
   -   To further speed up simulation, consider
          add ++aps on command line
   -   Non-default settings that could significantly slow down simulation
          errpreset = conservative, default moderate
          reltol = 10e-06, default 100e-06 (conservative)
~~~~~~~~~~~~~~~~~~~~~~~~~~~~~~~~~


During simulation, the CPU load for active processors is :
         0 (28.1 %)      1 (22.8 %)      2 (6.0 %)       3 (48.5 %)
         4 (6.0 %)       5 (8.9 %)       6 (99.6 %)      7 (32.3 %)
         8 (6.7 %)       9 (4.4 %)      10 (4.8 %)      11 (5.2 %)
        12 (11.6 %)     13 (2.6 %)      14 (15.8 %)     15 (2.2 %)
        16 (20.7 %)     17 (7.7 %)      18 (70.4 %)     19 (100.0 %)
        20 (1.1 %)      21 (4.1 %)      22 (1.5 %)      23 (15.5 %)
        24 (100.0 %)    25 (2.6 %)      26 (25.8 %)     27 (2.2 %)
        28 (20.5 %)     29 (100.0 %)    30 (5.5 %)      31 (18.9 %)
        32 (4.1 %)      33 (17.3 %)     34 (59.0 %)     35 (8.8 %)
        36 (5.6 %)      37 (5.1 %)      38 (77.4 %)     39 (2.6 %)
        40 (100.0 %)    41 (8.9 %)      42 (19.2 %)     43 (4.1 %)
        44 (3.0 %)      45 (3.0 %)      46 (5.1 %)      47 (4.1 %)
        Total: 1129.6%
Initial condition solution time: CPU = 2.824 ms, elapsed = 2.82598 ms.
Intrinsic tran analysis time:    CPU = 494.7 ms, elapsed = 496.278 ms.
Total time required for tran analysis `tran': CPU = 499.392 ms, elapsed = 501.613 ms, util. = 99.6%.
Time accumulated: CPU = 2.23945 s, elapsed = 2.79196 s.
Peak resident memory used = 213 Mbytes.


Notice from spectre during transient analysis `tran', during Monte Carlo analysis `mc1'.
    34 warnings suppressed.

finalTimeOP: writing operating point information to rawfile.

Opening the PSF file ../psf/mc1_separate/002/finalTimeOP.info ...
modelParameter: writing model parameter values to rawfile.

Opening the PSF file ../psf/mc1_separate/002/modelParameter.info ...
element: writing instance parameter values to rawfile.

Opening the PSF file ../psf/mc1_separate/002/element.info ...
outputParameter: writing output parameter values to rawfile.

Opening the PSF file ../psf/mc1_separate/002/outputParameter.info ...
designParamVals: writing netlist parameters to rawfile.

Opening the PSFASCII file ../psf/mc1_separate/002/designParamVals.info ...
primitives: writing primitives to rawfile.

Opening the PSFASCII file ../psf/mc1_separate/002/primitives.info.primitives ...
subckts: writing subcircuits to rawfile.

Opening the PSFASCII file ../psf/mc1_separate/002/subckts.info.subckts ...
    mc1: iteration = 2           (8.33 %), step = 1            (8.33 %)
3  16.67% 

*****************************************************************************************
* 
* INFO: AMS_processOption = C35B4C3
* 
* INFO: Valid Modules  PIP VG5 HIRES
* 
*****************************************************************************************


******************
DC Analysis `dcOp'
******************

Opening the PSF file ../psf/mc1_separate/003/dcOp.dc ...
Important parameter values:
    reltol = 100e-06
    abstol(V) = 1 uV
    abstol(I) = 1 pA
    temp = 27 C
    tnom = 27 C
    tempeffects = all
    gmindc = 1 pS
    rabsshort = 1 mOhm

Notice from spectre during DC analysis `dcOp', during Monte Carlo analysis `mc1'.
    Bad pivoting is found during DC analysis. Option dc_pivot_check=yes is recommended for possible improvement of convergence.


Maximum value achieved for any signal of each quantity: 
V: V(net2) = 3.3 V
I: I(V0:p) = 6.359 uA
Maximum value of each quantity, excluding Verilog-A modules or dangling current sources:
V: V(vout_filt) = 1.602 V
I: I(V0:p) = 6.359 uA

Warning from spectre during check, during DC analysis `dcOp', during Monte Carlo analysis `mc1'.
    WARNING (CMI-2943): Parameter checks have been ignored because the valid value for parameter 'trise' could not be found in 'C1'.
    WARNING (CMI-2943): Parameter checks have been ignored because the valid value for parameter 'trise' could not be found in 'I0.R2.CM'.
    WARNING (CMI-2943): Parameter checks have been ignored because the valid value for parameter 'trise' could not be found in 'I0.R2.CS1'.
    WARNING (CMI-2943): Parameter checks have been ignored because the valid value for parameter 'trise' could not be found in 'I0.R2.CS0'.
    WARNING (CMI-2943): Parameter checks have been ignored because the valid value for parameter 'trise' could not be found in 'I0.C8<3>.C1'.
        Further occurrences of this warning will be suppressed.

Convergence achieved in 18 iterations.
DC simulation time: CPU = 5.926 ms, elapsed = 7.24387 ms.
Total time required for dc analysis `dcOp': CPU = 6.42 ms, elapsed = 7.72905 ms, util. = 83.1%.
Time accumulated: CPU = 2.28685 s, elapsed = 2.85121 s.
Peak resident memory used = 213 Mbytes.


Notice from spectre during Monte Carlo analysis `mc1'.
    34 warnings suppressed.

dcOpInfo: writing operating point information to rawfile.

Opening the PSF file ../psf/mc1_separate/003/dcOpInfo.info ...

************************************************
Transient Analysis `tran': time = (0 s -> 40 ms)
************************************************

Opening the PSF file ../psf/mc1_separate/003/tran.tran.tran ...

Notice from spectre during IC analysis, during transient analysis `tran', during Monte Carlo analysis `mc1'.
    Bad pivoting is found during DC analysis. Option dc_pivot_check=yes is recommended for possible improvement of convergence.
Warning from spectre during check, during IC analysis, during transient analysis `tran', during Monte Carlo analysis `mc1'.
    WARNING (CMI-2943): Parameter checks have been ignored because the valid value for parameter 'trise' could not be found in 'C1'.
    WARNING (CMI-2943): Parameter checks have been ignored because the valid value for parameter 'trise' could not be found in 'I0.R2.CM'.
    WARNING (CMI-2943): Parameter checks have been ignored because the valid value for parameter 'trise' could not be found in 'I0.R2.CS1'.
    WARNING (CMI-2943): Parameter checks have been ignored because the valid value for parameter 'trise' could not be found in 'I0.R2.CS0'.
    WARNING (CMI-2943): Parameter checks have been ignored because the valid value for parameter 'trise' could not be found in 'I0.C8<3>.C1'.
        Further occurrences of this warning will be suppressed.

Convergence achieved in 18 iterations.
DC simulation time: CPU = 2.604 ms, elapsed = 2.60592 ms.
Important parameter values:
    start = 0 s
    outputstart = 0 s
    stop = 40 ms
    step = 40 us
    maxstep = 400 us
    ic = all
    useprevic = no
    skipdc = no
    reltol = 10e-06
    abstol(V) = 1 uV
    abstol(I) = 1 pA
    temp = 27 C
    tnom = 27 C
    tempeffects = all
    errpreset = conservative
    method = gear2only
    lteratio = 10
    relref = alllocal
    cmin = 0 F
    gmin = 1 pS
    rabsshort = 1 mOhm


Notice from spectre during transient analysis `tran', during Monte Carlo analysis `mc1'.
    Multithreading is disabled due to the size of the design being too small.


Output and IC/nodeset summary:
                 save   8       (current)
                 save   83      (voltage)

    tran: time = 1.02 ms     (2.55 %), step = 48.57 us     (121 m%)
    tran: time = 3.034 ms    (7.58 %), step = 47.47 us     (119 m%)
    tran: time = 5.001 ms    (12.5 %), step = 50 us        (125 m%)
    tran: time = 7.015 ms    (17.5 %), step = 48.96 us     (122 m%)
    tran: time = 9.03 ms     (22.6 %), step = 47.78 us     (119 m%)
    tran: time = 11.04 ms    (27.6 %), step = 46.87 us     (117 m%)
    tran: time = 13.01 ms    (32.5 %), step = 49.38 us     (123 m%)
    tran: time = 15.02 ms    (37.6 %), step = 48.13 us     (120 m%)
    tran: time = 17.04 ms    (42.6 %), step = 47.13 us     (118 m%)
    tran: time = 19.01 ms    (47.5 %), step = 49.83 us     (125 m%)
    tran: time = 21.02 ms    (52.6 %), step = 48.5 us      (121 m%)
    tran: time = 23.03 ms    (57.6 %), step = 47.42 us     (119 m%)
    tran: time = 25 ms       (62.5 %), step = 50 us        (125 m%)
    tran: time = 27.02 ms    (67.5 %), step = 48.89 us     (122 m%)
    tran: time = 29.03 ms    (72.6 %), step = 47.73 us     (119 m%)
    tran: time = 31.04 ms    (77.6 %), step = 46.83 us     (117 m%)
    tran: time = 33.01 ms    (82.5 %), step = 49.3 us      (123 m%)
    tran: time = 35.03 ms    (87.6 %), step = 48.07 us     (120 m%)
    tran: time = 37.04 ms    (92.6 %), step = 47.08 us     (118 m%)
    tran: time = 39.01 ms    (97.5 %), step = 49.75 us     (124 m%)
Number of accepted tran steps =             851

Maximum value achieved for any signal of each quantity: 
V: V(net2) = 3.3 V
I: I(V0:p) = 6.359 uA
Maximum value of each quantity, excluding Verilog-A modules or dangling current sources:
V: V(vout_filt) = 1.616 V
I: I(V0:p) = 6.359 uA

~~~~~~~~~~~~~~~~~~~~~~~~~~~~~~~~~
Post-Transient Simulation Summary
~~~~~~~~~~~~~~~~~~~~~~~~~~~~~~~~~
   -   To further speed up simulation, consider
          add ++aps on command line
   -   Non-default settings that could significantly slow down simulation
          errpreset = conservative, default moderate
          reltol = 10e-06, default 100e-06 (conservative)
~~~~~~~~~~~~~~~~~~~~~~~~~~~~~~~~~


During simulation, the CPU load for active processors is :
         0 (39.4 %)      1 (20.6 %)      2 (5.0 %)       3 (40.6 %)
         4 (6.2 %)       5 (7.4 %)       6 (99.7 %)      7 (29.1 %)
         8 (5.9 %)       9 (4.3 %)      10 (4.3 %)      11 (5.0 %)
        12 (11.2 %)     13 (2.8 %)      14 (14.4 %)     15 (5.2 %)
        16 (17.9 %)     17 (7.3 %)      18 (75.1 %)     19 (100.0 %)
        20 (16.4 %)     21 (4.3 %)      22 (3.1 %)      23 (19.4 %)
        24 (100.0 %)    25 (12.6 %)     26 (23.2 %)     27 (1.9 %)
        28 (17.4 %)     29 (100.0 %)    30 (4.9 %)      31 (32.5 %)
        32 (4.0 %)      33 (14.8 %)     34 (63.8 %)     35 (7.9 %)
        36 (19.2 %)     37 (7.3 %)      38 (80.4 %)     39 (3.7 %)
        40 (100.0 %)    41 (8.6 %)      42 (16.9 %)     43 (4.0 %)
        44 (2.8 %)      45 (3.1 %)      46 (5.8 %)      47 (6.2 %)
        Total: 1185.5%
Initial condition solution time: CPU = 2.642 ms, elapsed = 2.64406 ms.
Intrinsic tran analysis time:    CPU = 481.037 ms, elapsed = 482.569 ms.
Total time required for tran analysis `tran': CPU = 485.48 ms, elapsed = 487.568 ms, util. = 99.6%.
Time accumulated: CPU = 2.7792 s, elapsed = 3.34826 s.
Peak resident memory used = 213 Mbytes.


Notice from spectre during transient analysis `tran', during Monte Carlo analysis `mc1'.
    34 warnings suppressed.

finalTimeOP: writing operating point information to rawfile.

Opening the PSF file ../psf/mc1_separate/003/finalTimeOP.info ...
modelParameter: writing model parameter values to rawfile.

Opening the PSF file ../psf/mc1_separate/003/modelParameter.info ...
element: writing instance parameter values to rawfile.

Opening the PSF file ../psf/mc1_separate/003/element.info ...
outputParameter: writing output parameter values to rawfile.

Opening the PSF file ../psf/mc1_separate/003/outputParameter.info ...
designParamVals: writing netlist parameters to rawfile.

Opening the PSFASCII file ../psf/mc1_separate/003/designParamVals.info ...
primitives: writing primitives to rawfile.

Opening the PSFASCII file ../psf/mc1_separate/003/primitives.info.primitives ...
subckts: writing subcircuits to rawfile.

Opening the PSFASCII file ../psf/mc1_separate/003/subckts.info.subckts ...
    mc1: iteration = 3           (16.7 %), step = 1            (8.33 %)
4  25.00% 

*****************************************************************************************
* 
* INFO: AMS_processOption = C35B4C3
* 
* INFO: Valid Modules  PIP VG5 HIRES
* 
*****************************************************************************************


******************
DC Analysis `dcOp'
******************

Opening the PSF file ../psf/mc1_separate/004/dcOp.dc ...
Important parameter values:
    reltol = 100e-06
    abstol(V) = 1 uV
    abstol(I) = 1 pA
    temp = 27 C
    tnom = 27 C
    tempeffects = all
    gmindc = 1 pS
    rabsshort = 1 mOhm

Notice from spectre during DC analysis `dcOp', during Monte Carlo analysis `mc1'.
    Bad pivoting is found during DC analysis. Option dc_pivot_check=yes is recommended for possible improvement of convergence.


Maximum value achieved for any signal of each quantity: 
V: V(net2) = 3.3 V
I: I(V0:p) = 6.528 uA
Maximum value of each quantity, excluding Verilog-A modules or dangling current sources:
V: V(net1) = 1.6 V
I: I(V0:p) = 6.528 uA

Warning from spectre during check, during DC analysis `dcOp', during Monte Carlo analysis `mc1'.
    WARNING (CMI-2943): Parameter checks have been ignored because the valid value for parameter 'trise' could not be found in 'C1'.
    WARNING (CMI-2943): Parameter checks have been ignored because the valid value for parameter 'trise' could not be found in 'I0.R2.CM'.
    WARNING (CMI-2943): Parameter checks have been ignored because the valid value for parameter 'trise' could not be found in 'I0.R2.CS1'.
    WARNING (CMI-2943): Parameter checks have been ignored because the valid value for parameter 'trise' could not be found in 'I0.R2.CS0'.
    WARNING (CMI-2943): Parameter checks have been ignored because the valid value for parameter 'trise' could not be found in 'I0.C8<3>.C1'.
        Further occurrences of this warning will be suppressed.

Convergence achieved in 18 iterations.
DC simulation time: CPU = 6.326 ms, elapsed = 7.73406 ms.
Total time required for dc analysis `dcOp': CPU = 6.862 ms, elapsed = 8.26716 ms, util. = 83%.
Time accumulated: CPU = 2.82979 s, elapsed = 3.41121 s.
Peak resident memory used = 213 Mbytes.


Notice from spectre during Monte Carlo analysis `mc1'.
    34 warnings suppressed.

dcOpInfo: writing operating point information to rawfile.

Opening the PSF file ../psf/mc1_separate/004/dcOpInfo.info ...

************************************************
Transient Analysis `tran': time = (0 s -> 40 ms)
************************************************

Opening the PSF file ../psf/mc1_separate/004/tran.tran.tran ...

Notice from spectre during IC analysis, during transient analysis `tran', during Monte Carlo analysis `mc1'.
    Bad pivoting is found during DC analysis. Option dc_pivot_check=yes is recommended for possible improvement of convergence.
Warning from spectre during check, during IC analysis, during transient analysis `tran', during Monte Carlo analysis `mc1'.
    WARNING (CMI-2943): Parameter checks have been ignored because the valid value for parameter 'trise' could not be found in 'C1'.
    WARNING (CMI-2943): Parameter checks have been ignored because the valid value for parameter 'trise' could not be found in 'I0.R2.CM'.
    WARNING (CMI-2943): Parameter checks have been ignored because the valid value for parameter 'trise' could not be found in 'I0.R2.CS1'.
    WARNING (CMI-2943): Parameter checks have been ignored because the valid value for parameter 'trise' could not be found in 'I0.R2.CS0'.
    WARNING (CMI-2943): Parameter checks have been ignored because the valid value for parameter 'trise' could not be found in 'I0.C8<3>.C1'.
        Further occurrences of this warning will be suppressed.

Convergence achieved in 18 iterations.
DC simulation time: CPU = 3.289 ms, elapsed = 3.28994 ms.
Important parameter values:
    start = 0 s
    outputstart = 0 s
    stop = 40 ms
    step = 40 us
    maxstep = 400 us
    ic = all
    useprevic = no
    skipdc = no
    reltol = 10e-06
    abstol(V) = 1 uV
    abstol(I) = 1 pA
    temp = 27 C
    tnom = 27 C
    tempeffects = all
    errpreset = conservative
    method = gear2only
    lteratio = 10
    relref = alllocal
    cmin = 0 F
    gmin = 1 pS
    rabsshort = 1 mOhm


Notice from spectre during transient analysis `tran', during Monte Carlo analysis `mc1'.
    Multithreading is disabled due to the size of the design being too small.


Output and IC/nodeset summary:
                 save   8       (current)
                 save   83      (voltage)

    tran: time = 1.022 ms    (2.55 %), step = 48.36 us     (121 m%)
    tran: time = 3.035 ms    (7.59 %), step = 47.35 us     (118 m%)
    tran: time = 5.002 ms    (12.5 %), step = 50 us        (125 m%)
    tran: time = 7.015 ms    (17.5 %), step = 48.92 us     (122 m%)
    tran: time = 9.029 ms    (22.6 %), step = 47.79 us     (119 m%)
    tran: time = 11.04 ms    (27.6 %), step = 46.91 us     (117 m%)
    tran: time = 13.01 ms    (32.5 %), step = 49.52 us     (124 m%)
    tran: time = 15.02 ms    (37.6 %), step = 48.3 us      (121 m%)
    tran: time = 17.04 ms    (42.6 %), step = 47.3 us      (118 m%)
    tran: time = 19 ms       (47.5 %), step = 50 us        (125 m%)
    tran: time = 21.02 ms    (52.5 %), step = 48.86 us     (122 m%)
    tran: time = 23.03 ms    (57.6 %), step = 47.74 us     (119 m%)
    tran: time = 25.04 ms    (62.6 %), step = 46.87 us     (117 m%)
    tran: time = 27.01 ms    (67.5 %), step = 49.45 us     (124 m%)
    tran: time = 29.02 ms    (72.6 %), step = 48.25 us     (121 m%)
    tran: time = 31.04 ms    (77.6 %), step = 47.26 us     (118 m%)
    tran: time = 33 ms       (82.5 %), step = 50 us        (125 m%)
    tran: time = 35.02 ms    (87.5 %), step = 48.8 us      (122 m%)
    tran: time = 37.03 ms    (92.6 %), step = 47.69 us     (119 m%)
    tran: time = 39.04 ms    (97.6 %), step = 46.83 us     (117 m%)
Number of accepted tran steps =             851

Maximum value achieved for any signal of each quantity: 
V: V(net2) = 3.3 V
I: I(V0:p) = 6.528 uA
Maximum value of each quantity, excluding Verilog-A modules or dangling current sources:
V: V(vout_filt) = 1.613 V
I: I(V0:p) = 6.528 uA

~~~~~~~~~~~~~~~~~~~~~~~~~~~~~~~~~
Post-Transient Simulation Summary
~~~~~~~~~~~~~~~~~~~~~~~~~~~~~~~~~
   -   To further speed up simulation, consider
          add ++aps on command line
   -   Non-default settings that could significantly slow down simulation
          errpreset = conservative, default moderate
          reltol = 10e-06, default 100e-06 (conservative)
~~~~~~~~~~~~~~~~~~~~~~~~~~~~~~~~~


During simulation, the CPU load for active processors is :
         0 (36.3 %)      1 (17.9 %)      2 (4.5 %)       3 (35.1 %)
         4 (6.9 %)       5 (7.6 %)       6 (99.7 %)      7 (37.2 %)
         8 (6.3 %)       9 (5.0 %)      10 (4.2 %)      11 (4.8 %)
        12 (10.7 %)     13 (2.9 %)      14 (12.6 %)     15 (7.6 %)
        16 (15.4 %)     17 (6.8 %)      18 (64.8 %)     19 (100.0 %)
        20 (28.5 %)     21 (5.0 %)      22 (16.5 %)     23 (17.4 %)
        24 (100.0 %)    25 (13.6 %)     26 (31.7 %)     27 (2.1 %)
        28 (15.7 %)     29 (100.0 %)    30 (5.0 %)      31 (41.5 %)
        32 (4.0 %)      33 (12.9 %)     34 (68.0 %)     35 (7.1 %)
        36 (27.2 %)     37 (9.4 %)      38 (80.7 %)     39 (5.6 %)
        40 (100.0 %)    41 (8.0 %)      42 (14.6 %)     43 (4.5 %)
        44 (2.9 %)      45 (4.2 %)      46 (6.0 %)      47 (7.4 %)
        Total: 1225.9%
Initial condition solution time: CPU = 3.343 ms, elapsed = 3.34501 ms.
Intrinsic tran analysis time:    CPU = 469.946 ms, elapsed = 471.438 ms.
Total time required for tran analysis `tran': CPU = 476.017 ms, elapsed = 478.168 ms, util. = 99.6%.
Time accumulated: CPU = 3.314 s, elapsed = 3.90036 s.
Peak resident memory used = 213 Mbytes.


Notice from spectre during transient analysis `tran', during Monte Carlo analysis `mc1'.
    34 warnings suppressed.

finalTimeOP: writing operating point information to rawfile.

Opening the PSF file ../psf/mc1_separate/004/finalTimeOP.info ...
modelParameter: writing model parameter values to rawfile.

Opening the PSF file ../psf/mc1_separate/004/modelParameter.info ...
element: writing instance parameter values to rawfile.

Opening the PSF file ../psf/mc1_separate/004/element.info ...
outputParameter: writing output parameter values to rawfile.

Opening the PSF file ../psf/mc1_separate/004/outputParameter.info ...
designParamVals: writing netlist parameters to rawfile.

Opening the PSFASCII file ../psf/mc1_separate/004/designParamVals.info ...
primitives: writing primitives to rawfile.

Opening the PSFASCII file ../psf/mc1_separate/004/primitives.info.primitives ...
subckts: writing subcircuits to rawfile.

Opening the PSFASCII file ../psf/mc1_separate/004/subckts.info.subckts ...
    mc1: iteration = 4             (25 %), step = 1            (8.33 %)
5  33.33% 

*****************************************************************************************
* 
* INFO: AMS_processOption = C35B4C3
* 
* INFO: Valid Modules  PIP VG5 HIRES
* 
*****************************************************************************************


******************
DC Analysis `dcOp'
******************

Opening the PSF file ../psf/mc1_separate/005/dcOp.dc ...
Important parameter values:
    reltol = 100e-06
    abstol(V) = 1 uV
    abstol(I) = 1 pA
    temp = 27 C
    tnom = 27 C
    tempeffects = all
    gmindc = 1 pS
    rabsshort = 1 mOhm

Notice from spectre during DC analysis `dcOp', during Monte Carlo analysis `mc1'.
    Bad pivoting is found during DC analysis. Option dc_pivot_check=yes is recommended for possible improvement of convergence.


Maximum value achieved for any signal of each quantity: 
V: V(net2) = 3.3 V
I: I(V0:p) = 6.398 uA
Maximum value of each quantity, excluding Verilog-A modules or dangling current sources:
V: V(vout_filt) = 1.602 V
I: I(V0:p) = 6.398 uA

Warning from spectre during check, during DC analysis `dcOp', during Monte Carlo analysis `mc1'.
    WARNING (CMI-2943): Parameter checks have been ignored because the valid value for parameter 'trise' could not be found in 'C1'.
    WARNING (CMI-2943): Parameter checks have been ignored because the valid value for parameter 'trise' could not be found in 'I0.R2.CM'.
    WARNING (CMI-2943): Parameter checks have been ignored because the valid value for parameter 'trise' could not be found in 'I0.R2.CS1'.
    WARNING (CMI-2943): Parameter checks have been ignored because the valid value for parameter 'trise' could not be found in 'I0.R2.CS0'.
    WARNING (CMI-2943): Parameter checks have been ignored because the valid value for parameter 'trise' could not be found in 'I0.C8<3>.C1'.
        Further occurrences of this warning will be suppressed.

Convergence achieved in 19 iterations.
DC simulation time: CPU = 4.876 ms, elapsed = 6.41394 ms.
Total time required for dc analysis `dcOp': CPU = 5.289 ms, elapsed = 6.82497 ms, util. = 77.5%.
Time accumulated: CPU = 3.35847 s, elapsed = 3.95689 s.
Peak resident memory used = 213 Mbytes.


Notice from spectre during Monte Carlo analysis `mc1'.
    34 warnings suppressed.

dcOpInfo: writing operating point information to rawfile.

Opening the PSF file ../psf/mc1_separate/005/dcOpInfo.info ...

************************************************
Transient Analysis `tran': time = (0 s -> 40 ms)
************************************************

Opening the PSF file ../psf/mc1_separate/005/tran.tran.tran ...

Notice from spectre during IC analysis, during transient analysis `tran', during Monte Carlo analysis `mc1'.
    Bad pivoting is found during DC analysis. Option dc_pivot_check=yes is recommended for possible improvement of convergence.
Warning from spectre during check, during IC analysis, during transient analysis `tran', during Monte Carlo analysis `mc1'.
    WARNING (CMI-2943): Parameter checks have been ignored because the valid value for parameter 'trise' could not be found in 'C1'.
    WARNING (CMI-2943): Parameter checks have been ignored because the valid value for parameter 'trise' could not be found in 'I0.R2.CM'.
    WARNING (CMI-2943): Parameter checks have been ignored because the valid value for parameter 'trise' could not be found in 'I0.R2.CS1'.
    WARNING (CMI-2943): Parameter checks have been ignored because the valid value for parameter 'trise' could not be found in 'I0.R2.CS0'.
    WARNING (CMI-2943): Parameter checks have been ignored because the valid value for parameter 'trise' could not be found in 'I0.C8<3>.C1'.
        Further occurrences of this warning will be suppressed.

Convergence achieved in 19 iterations.
DC simulation time: CPU = 2.355 ms, elapsed = 2.35581 ms.
Important parameter values:
    start = 0 s
    outputstart = 0 s
    stop = 40 ms
    step = 40 us
    maxstep = 400 us
    ic = all
    useprevic = no
    skipdc = no
    reltol = 10e-06
    abstol(V) = 1 uV
    abstol(I) = 1 pA
    temp = 27 C
    tnom = 27 C
    tempeffects = all
    errpreset = conservative
    method = gear2only
    lteratio = 10
    relref = alllocal
    cmin = 0 F
    gmin = 1 pS
    rabsshort = 1 mOhm


Notice from spectre during transient analysis `tran', during Monte Carlo analysis `mc1'.
    Multithreading is disabled due to the size of the design being too small.


Output and IC/nodeset summary:
                 save   8       (current)
                 save   83      (voltage)

    tran: time = 1.024 ms    (2.56 %), step = 48.18 us     (120 m%)
    tran: time = 3.039 ms     (7.6 %), step = 47.17 us     (118 m%)
    tran: time = 5.006 ms    (12.5 %), step = 49.89 us     (125 m%)
    tran: time = 7.02 ms     (17.5 %), step = 48.55 us     (121 m%)
    tran: time = 9.034 ms    (22.6 %), step = 47.46 us     (119 m%)
    tran: time = 11 ms       (27.5 %), step = 50 us        (125 m%)
    tran: time = 13.02 ms    (32.5 %), step = 48.94 us     (122 m%)
    tran: time = 15.03 ms    (37.6 %), step = 47.77 us     (119 m%)
    tran: time = 17.04 ms    (42.6 %), step = 46.86 us     (117 m%)
    tran: time = 19.01 ms    (47.5 %), step = 49.36 us     (123 m%)
    tran: time = 21.03 ms    (52.6 %), step = 48.12 us     (120 m%)
    tran: time = 23.04 ms    (57.6 %), step = 47.12 us     (118 m%)
    tran: time = 25.01 ms    (62.5 %), step = 49.81 us     (125 m%)
    tran: time = 27.02 ms    (67.6 %), step = 48.49 us     (121 m%)
    tran: time = 29.03 ms    (72.6 %), step = 47.41 us     (119 m%)
    tran: time = 31 ms       (77.5 %), step = 50 us        (125 m%)
    tran: time = 33.02 ms    (82.5 %), step = 48.87 us     (122 m%)
    tran: time = 35.03 ms    (87.6 %), step = 47.71 us     (119 m%)
    tran: time = 37.04 ms    (92.6 %), step = 46.82 us     (117 m%)
    tran: time = 39.01 ms    (97.5 %), step = 49.28 us     (123 m%)
Number of accepted tran steps =             851

Maximum value achieved for any signal of each quantity: 
V: V(net2) = 3.3 V
I: I(V0:p) = 6.398 uA
Maximum value of each quantity, excluding Verilog-A modules or dangling current sources:
V: V(vout_filt) = 1.616 V
I: I(V0:p) = 6.398 uA

~~~~~~~~~~~~~~~~~~~~~~~~~~~~~~~~~
Post-Transient Simulation Summary
~~~~~~~~~~~~~~~~~~~~~~~~~~~~~~~~~
   -   To further speed up simulation, consider
          add ++aps on command line
   -   Non-default settings that could significantly slow down simulation
          errpreset = conservative, default moderate
          reltol = 10e-06, default 100e-06 (conservative)
~~~~~~~~~~~~~~~~~~~~~~~~~~~~~~~~~


During simulation, the CPU load for active processors is :
         0 (32.3 %)      1 (16.3 %)      2 (4.5 %)       3 (32.3 %)
         4 (6.3 %)       5 (7.2 %)       6 (99.8 %)      7 (44.1 %)
         8 (5.6 %)       9 (5.3 %)      10 (4.2 %)      11 (4.5 %)
        12 (20.9 %)     13 (4.7 %)      14 (13.3 %)     15 (8.4 %)
        16 (15.2 %)     17 (6.5 %)      18 (57.9 %)     19 (98.2 %)
        20 (35.7 %)     21 (4.4 %)      22 (17.0 %)     23 (15.7 %)
        24 (100.0 %)    25 (12.4 %)     26 (39.1 %)     27 (2.1 %)
        28 (14.0 %)     29 (100.0 %)    30 (4.6 %)      31 (47.6 %)
        32 (3.7 %)      33 (11.9 %)     34 (71.2 %)     35 (6.7 %)
        36 (25.8 %)     37 (10.9 %)     38 (72.7 %)     39 (16.4 %)
        40 (100.0 %)    41 (7.1 %)      42 (13.3 %)     43 (4.9 %)
        44 (3.3 %)      45 (4.7 %)      46 (10.9 %)     47 (11.7 %)
        Total: 1255.0%
Initial condition solution time: CPU = 2.385 ms, elapsed = 2.38514 ms.
Intrinsic tran analysis time:    CPU = 427.166 ms, elapsed = 428.816 ms.
Total time required for tran analysis `tran': CPU = 431.203 ms, elapsed = 433.553 ms, util. = 99.5%.
Time accumulated: CPU = 3.79571 s, elapsed = 4.39918 s.
Peak resident memory used = 213 Mbytes.


Notice from spectre during transient analysis `tran', during Monte Carlo analysis `mc1'.
    34 warnings suppressed.

finalTimeOP: writing operating point information to rawfile.

Opening the PSF file ../psf/mc1_separate/005/finalTimeOP.info ...
modelParameter: writing model parameter values to rawfile.

Opening the PSF file ../psf/mc1_separate/005/modelParameter.info ...
element: writing instance parameter values to rawfile.

Opening the PSF file ../psf/mc1_separate/005/element.info ...
outputParameter: writing output parameter values to rawfile.

Opening the PSF file ../psf/mc1_separate/005/outputParameter.info ...
designParamVals: writing netlist parameters to rawfile.

Opening the PSFASCII file ../psf/mc1_separate/005/designParamVals.info ...
primitives: writing primitives to rawfile.

Opening the PSFASCII file ../psf/mc1_separate/005/primitives.info.primitives ...
subckts: writing subcircuits to rawfile.

Opening the PSFASCII file ../psf/mc1_separate/005/subckts.info.subckts ...
    mc1: iteration = 5           (33.3 %), step = 1            (8.33 %)
6  41.67% 

*****************************************************************************************
* 
* INFO: AMS_processOption = C35B4C3
* 
* INFO: Valid Modules  PIP VG5 HIRES
* 
*****************************************************************************************


******************
DC Analysis `dcOp'
******************

Opening the PSF file ../psf/mc1_separate/006/dcOp.dc ...
Important parameter values:
    reltol = 100e-06
    abstol(V) = 1 uV
    abstol(I) = 1 pA
    temp = 27 C
    tnom = 27 C
    tempeffects = all
    gmindc = 1 pS
    rabsshort = 1 mOhm

Notice from spectre during DC analysis `dcOp', during Monte Carlo analysis `mc1'.
    Bad pivoting is found during DC analysis. Option dc_pivot_check=yes is recommended for possible improvement of convergence.


Maximum value achieved for any signal of each quantity: 
V: V(net2) = 3.3 V
I: I(V0:p) = 6.44 uA
Maximum value of each quantity, excluding Verilog-A modules or dangling current sources:
V: V(net1) = 1.6 V
I: I(V0:p) = 6.44 uA

Warning from spectre during check, during DC analysis `dcOp', during Monte Carlo analysis `mc1'.
    WARNING (CMI-2943): Parameter checks have been ignored because the valid value for parameter 'trise' could not be found in 'C1'.
    WARNING (CMI-2943): Parameter checks have been ignored because the valid value for parameter 'trise' could not be found in 'I0.R2.CM'.
    WARNING (CMI-2943): Parameter checks have been ignored because the valid value for parameter 'trise' could not be found in 'I0.R2.CS1'.
    WARNING (CMI-2943): Parameter checks have been ignored because the valid value for parameter 'trise' could not be found in 'I0.R2.CS0'.
    WARNING (CMI-2943): Parameter checks have been ignored because the valid value for parameter 'trise' could not be found in 'I0.C8<3>.C1'.
        Further occurrences of this warning will be suppressed.

Convergence achieved in 21 iterations.
DC simulation time: CPU = 4.967 ms, elapsed = 6.26397 ms.
Total time required for dc analysis `dcOp': CPU = 5.37 ms, elapsed = 6.67119 ms, util. = 80.5%.
Time accumulated: CPU = 3.83617 s, elapsed = 4.45244 s.
Peak resident memory used = 213 Mbytes.


Notice from spectre during Monte Carlo analysis `mc1'.
    34 warnings suppressed.

dcOpInfo: writing operating point information to rawfile.

Opening the PSF file ../psf/mc1_separate/006/dcOpInfo.info ...

************************************************
Transient Analysis `tran': time = (0 s -> 40 ms)
************************************************

Opening the PSF file ../psf/mc1_separate/006/tran.tran.tran ...

Notice from spectre during IC analysis, during transient analysis `tran', during Monte Carlo analysis `mc1'.
    Bad pivoting is found during DC analysis. Option dc_pivot_check=yes is recommended for possible improvement of convergence.
Warning from spectre during check, during IC analysis, during transient analysis `tran', during Monte Carlo analysis `mc1'.
    WARNING (CMI-2943): Parameter checks have been ignored because the valid value for parameter 'trise' could not be found in 'C1'.
    WARNING (CMI-2943): Parameter checks have been ignored because the valid value for parameter 'trise' could not be found in 'I0.R2.CM'.
    WARNING (CMI-2943): Parameter checks have been ignored because the valid value for parameter 'trise' could not be found in 'I0.R2.CS1'.
    WARNING (CMI-2943): Parameter checks have been ignored because the valid value for parameter 'trise' could not be found in 'I0.R2.CS0'.
    WARNING (CMI-2943): Parameter checks have been ignored because the valid value for parameter 'trise' could not be found in 'I0.C8<3>.C1'.
        Further occurrences of this warning will be suppressed.

Convergence achieved in 21 iterations.
DC simulation time: CPU = 2.515 ms, elapsed = 2.51603 ms.
Important parameter values:
    start = 0 s
    outputstart = 0 s
    stop = 40 ms
    step = 40 us
    maxstep = 400 us
    ic = all
    useprevic = no
    skipdc = no
    reltol = 10e-06
    abstol(V) = 1 uV
    abstol(I) = 1 pA
    temp = 27 C
    tnom = 27 C
    tempeffects = all
    errpreset = conservative
    method = gear2only
    lteratio = 10
    relref = alllocal
    cmin = 0 F
    gmin = 1 pS
    rabsshort = 1 mOhm


Notice from spectre during transient analysis `tran', during Monte Carlo analysis `mc1'.
    Multithreading is disabled due to the size of the design being too small.


Output and IC/nodeset summary:
                 save   8       (current)
                 save   83      (voltage)

    tran: time = 1.022 ms    (2.55 %), step = 48.33 us     (121 m%)
    tran: time = 3.035 ms    (7.59 %), step = 47.33 us     (118 m%)
    tran: time = 5.002 ms    (12.5 %), step = 50 us        (125 m%)
    tran: time = 7.015 ms    (17.5 %), step = 48.93 us     (122 m%)
    tran: time = 9.029 ms    (22.6 %), step = 47.81 us     (120 m%)
    tran: time = 11.04 ms    (27.6 %), step = 46.93 us     (117 m%)
    tran: time = 13.01 ms    (32.5 %), step = 49.57 us     (124 m%)
    tran: time = 15.02 ms    (37.6 %), step = 48.36 us     (121 m%)
    tran: time = 17.03 ms    (42.6 %), step = 47.35 us     (118 m%)
    tran: time = 19 ms       (47.5 %), step = 50 us        (125 m%)
    tran: time = 21.01 ms    (52.5 %), step = 48.96 us     (122 m%)
    tran: time = 23.03 ms    (57.6 %), step = 47.83 us     (120 m%)
    tran: time = 25.04 ms    (62.6 %), step = 46.95 us     (117 m%)
    tran: time = 27.01 ms    (67.5 %), step = 49.61 us     (124 m%)
    tran: time = 29.02 ms    (72.6 %), step = 48.39 us     (121 m%)
    tran: time = 31.03 ms    (77.6 %), step = 47.38 us     (118 m%)
    tran: time = 33 ms       (82.5 %), step = 50 us        (125 m%)
    tran: time = 35.01 ms    (87.5 %), step = 48.99 us     (122 m%)
    tran: time = 37.03 ms    (92.6 %), step = 47.86 us     (120 m%)
    tran: time = 39.04 ms    (97.6 %), step = 46.97 us     (117 m%)
Number of accepted tran steps =             851

Maximum value achieved for any signal of each quantity: 
V: V(net2) = 3.3 V
I: I(V0:p) = 6.44 uA
Maximum value of each quantity, excluding Verilog-A modules or dangling current sources:
V: V(vout_filt) = 1.613 V
I: I(V0:p) = 6.44 uA

~~~~~~~~~~~~~~~~~~~~~~~~~~~~~~~~~
Post-Transient Simulation Summary
~~~~~~~~~~~~~~~~~~~~~~~~~~~~~~~~~
   -   To further speed up simulation, consider
          add ++aps on command line
   -   Non-default settings that could significantly slow down simulation
          errpreset = conservative, default moderate
          reltol = 10e-06, default 100e-06 (conservative)
~~~~~~~~~~~~~~~~~~~~~~~~~~~~~~~~~


During simulation, the CPU load for active processors is :
         0 (29.2 %)      1 (15.0 %)      2 (4.4 %)       3 (34.2 %)
         4 (5.9 %)       5 (6.7 %)       6 (99.8 %)      7 (49.4 %)
         8 (5.3 %)       9 (4.8 %)      10 (4.0 %)      11 (4.2 %)
        12 (20.0 %)     13 (4.9 %)      14 (13.6 %)     15 (8.6 %)
        16 (14.1 %)     17 (5.9 %)      18 (60.5 %)     19 (93.4 %)
        20 (41.3 %)     21 (4.4 %)      22 (15.4 %)     23 (14.3 %)
        24 (100.0 %)    25 (11.1 %)     26 (45.3 %)     27 (2.1 %)
        28 (12.7 %)     29 (100.0 %)    30 (14.3 %)     31 (42.7 %)
        32 (4.2 %)      33 (10.9 %)     34 (73.8 %)     35 (6.2 %)
        36 (23.2 %)     37 (11.7 %)     38 (65.6 %)     39 (24.9 %)
        40 (100.0 %)    41 (6.6 %)      42 (12.2 %)     43 (4.4 %)
        44 (3.4 %)      45 (4.8 %)      46 (10.2 %)     47 (20.8 %)
        Total: 1270.4%
Initial condition solution time: CPU = 2.544 ms, elapsed = 2.54703 ms.
Intrinsic tran analysis time:    CPU = 425.615 ms, elapsed = 427.031 ms.
Total time required for tran analysis `tran': CPU = 429.699 ms, elapsed = 431.807 ms, util. = 99.5%.
Time accumulated: CPU = 4.2718 s, elapsed = 4.8927 s.
Peak resident memory used = 213 Mbytes.


Notice from spectre during transient analysis `tran', during Monte Carlo analysis `mc1'.
    34 warnings suppressed.

finalTimeOP: writing operating point information to rawfile.

Opening the PSF file ../psf/mc1_separate/006/finalTimeOP.info ...
modelParameter: writing model parameter values to rawfile.

Opening the PSF file ../psf/mc1_separate/006/modelParameter.info ...
element: writing instance parameter values to rawfile.

Opening the PSF file ../psf/mc1_separate/006/element.info ...
outputParameter: writing output parameter values to rawfile.

Opening the PSF file ../psf/mc1_separate/006/outputParameter.info ...
designParamVals: writing netlist parameters to rawfile.

Opening the PSFASCII file ../psf/mc1_separate/006/designParamVals.info ...
primitives: writing primitives to rawfile.

Opening the PSFASCII file ../psf/mc1_separate/006/primitives.info.primitives ...
subckts: writing subcircuits to rawfile.

Opening the PSFASCII file ../psf/mc1_separate/006/subckts.info.subckts ...
    mc1: iteration = 6           (41.7 %), step = 1            (8.33 %)
7  50.00% 

*****************************************************************************************
* 
* INFO: AMS_processOption = C35B4C3
* 
* INFO: Valid Modules  PIP VG5 HIRES
* 
*****************************************************************************************


******************
DC Analysis `dcOp'
******************

Opening the PSF file ../psf/mc1_separate/007/dcOp.dc ...
Important parameter values:
    reltol = 100e-06
    abstol(V) = 1 uV
    abstol(I) = 1 pA
    temp = 27 C
    tnom = 27 C
    tempeffects = all
    gmindc = 1 pS
    rabsshort = 1 mOhm

Notice from spectre during DC analysis `dcOp', during Monte Carlo analysis `mc1'.
    Bad pivoting is found during DC analysis. Option dc_pivot_check=yes is recommended for possible improvement of convergence.


Maximum value achieved for any signal of each quantity: 
V: V(net2) = 3.3 V
I: I(V0:p) = 6.551 uA
Maximum value of each quantity, excluding Verilog-A modules or dangling current sources:
V: V(vout_filt) = 1.601 V
I: I(V0:p) = 6.551 uA

Warning from spectre during check, during DC analysis `dcOp', during Monte Carlo analysis `mc1'.
    WARNING (CMI-2943): Parameter checks have been ignored because the valid value for parameter 'trise' could not be found in 'C1'.
    WARNING (CMI-2943): Parameter checks have been ignored because the valid value for parameter 'trise' could not be found in 'I0.R2.CM'.
    WARNING (CMI-2943): Parameter checks have been ignored because the valid value for parameter 'trise' could not be found in 'I0.R2.CS1'.
    WARNING (CMI-2943): Parameter checks have been ignored because the valid value for parameter 'trise' could not be found in 'I0.R2.CS0'.
    WARNING (CMI-2943): Parameter checks have been ignored because the valid value for parameter 'trise' could not be found in 'I0.C8<3>.C1'.
        Further occurrences of this warning will be suppressed.

Convergence achieved in 17 iterations.
DC simulation time: CPU = 5.289 ms, elapsed = 6.60896 ms.
Total time required for dc analysis `dcOp': CPU = 5.685 ms, elapsed = 7.00307 ms, util. = 81.2%.
Time accumulated: CPU = 4.31488 s, elapsed = 4.94831 s.
Peak resident memory used = 213 Mbytes.


Notice from spectre during Monte Carlo analysis `mc1'.
    34 warnings suppressed.

dcOpInfo: writing operating point information to rawfile.

Opening the PSF file ../psf/mc1_separate/007/dcOpInfo.info ...

************************************************
Transient Analysis `tran': time = (0 s -> 40 ms)
************************************************

Opening the PSF file ../psf/mc1_separate/007/tran.tran.tran ...

Notice from spectre during IC analysis, during transient analysis `tran', during Monte Carlo analysis `mc1'.
    Bad pivoting is found during DC analysis. Option dc_pivot_check=yes is recommended for possible improvement of convergence.
Warning from spectre during check, during IC analysis, during transient analysis `tran', during Monte Carlo analysis `mc1'.
    WARNING (CMI-2943): Parameter checks have been ignored because the valid value for parameter 'trise' could not be found in 'C1'.
    WARNING (CMI-2943): Parameter checks have been ignored because the valid value for parameter 'trise' could not be found in 'I0.R2.CM'.
    WARNING (CMI-2943): Parameter checks have been ignored because the valid value for parameter 'trise' could not be found in 'I0.R2.CS1'.
    WARNING (CMI-2943): Parameter checks have been ignored because the valid value for parameter 'trise' could not be found in 'I0.R2.CS0'.
    WARNING (CMI-2943): Parameter checks have been ignored because the valid value for parameter 'trise' could not be found in 'I0.C8<3>.C1'.
        Further occurrences of this warning will be suppressed.

Convergence achieved in 17 iterations.
DC simulation time: CPU = 2.18 ms, elapsed = 2.19011 ms.
Important parameter values:
    start = 0 s
    outputstart = 0 s
    stop = 40 ms
    step = 40 us
    maxstep = 400 us
    ic = all
    useprevic = no
    skipdc = no
    reltol = 10e-06
    abstol(V) = 1 uV
    abstol(I) = 1 pA
    temp = 27 C
    tnom = 27 C
    tempeffects = all
    errpreset = conservative
    method = gear2only
    lteratio = 10
    relref = alllocal
    cmin = 0 F
    gmin = 1 pS
    rabsshort = 1 mOhm


Notice from spectre during transient analysis `tran', during Monte Carlo analysis `mc1'.
    Multithreading is disabled due to the size of the design being too small.


Output and IC/nodeset summary:
                 save   8       (current)
                 save   83      (voltage)

    tran: time = 1.035 ms    (2.59 %), step = 47.36 us     (118 m%)
    tran: time = 3.003 ms    (7.51 %), step = 50 us        (125 m%)
    tran: time = 5.016 ms    (12.5 %), step = 48.86 us     (122 m%)
    tran: time = 7.03 ms     (17.6 %), step = 47.72 us     (119 m%)
    tran: time = 9.044 ms    (22.6 %), step = 46.83 us     (117 m%)
    tran: time = 11.01 ms    (27.5 %), step = 49.34 us     (123 m%)
    tran: time = 13.02 ms    (32.6 %), step = 48.12 us     (120 m%)
    tran: time = 15.04 ms    (37.6 %), step = 47.14 us     (118 m%)
    tran: time = 17.01 ms    (42.5 %), step = 49.87 us     (125 m%)
    tran: time = 19.02 ms    (47.5 %), step = 48.56 us     (121 m%)
    tran: time = 21.03 ms    (52.6 %), step = 47.48 us     (119 m%)
    tran: time = 23 ms       (57.5 %), step = 50 us        (125 m%)
    tran: time = 25.01 ms    (62.5 %), step = 49.02 us     (123 m%)
    tran: time = 27.03 ms    (67.6 %), step = 47.85 us     (120 m%)
    tran: time = 29.04 ms    (72.6 %), step = 46.93 us     (117 m%)
    tran: time = 31.01 ms    (77.5 %), step = 49.51 us     (124 m%)
    tran: time = 33.02 ms    (82.6 %), step = 48.26 us     (121 m%)
    tran: time = 35.04 ms    (87.6 %), step = 47.25 us     (118 m%)
    tran: time = 37 ms       (92.5 %), step = 50 us        (125 m%)
    tran: time = 39.02 ms    (97.5 %), step = 48.71 us     (122 m%)
[...]
        Total: 1363.6%
Initial condition solution time: CPU = 3.013 ms, elapsed = 3.01504 ms.
Intrinsic tran analysis time:    CPU = 427.472 ms, elapsed = 429.31 ms.
Total time required for tran analysis `tran': CPU = 433.076 ms, elapsed = 435.594 ms, util. = 99.4%.
Time accumulated: CPU = 6.67653 s, elapsed = 7.3826 s.
Peak resident memory used = 213 Mbytes.


Notice from spectre during transient analysis `tran', during Monte Carlo analysis `mc1'.
    34 warnings suppressed.

finalTimeOP: writing operating point information to rawfile.

Opening the PSF file ../psf/mc1_separate/011/finalTimeOP.info ...
modelParameter: writing model parameter values to rawfile.

Opening the PSF file ../psf/mc1_separate/011/modelParameter.info ...
element: writing instance parameter values to rawfile.

Opening the PSF file ../psf/mc1_separate/011/element.info ...
outputParameter: writing output parameter values to rawfile.

Opening the PSF file ../psf/mc1_separate/011/outputParameter.info ...
designParamVals: writing netlist parameters to rawfile.

Opening the PSFASCII file ../psf/mc1_separate/011/designParamVals.info ...
primitives: writing primitives to rawfile.

Opening the PSFASCII file ../psf/mc1_separate/011/primitives.info.primitives ...
subckts: writing subcircuits to rawfile.

Opening the PSFASCII file ../psf/mc1_separate/011/subckts.info.subckts ...
    mc1: iteration = 11          (83.3 %), step = 1            (8.33 %)
12  91.67% 

*****************************************************************************************
* 
* INFO: AMS_processOption = C35B4C3
* 
* INFO: Valid Modules  PIP VG5 HIRES
* 
*****************************************************************************************


******************
DC Analysis `dcOp'
******************

Opening the PSF file ../psf/mc1_separate/012/dcOp.dc ...
Important parameter values:
    reltol = 100e-06
    abstol(V) = 1 uV
    abstol(I) = 1 pA
    temp = 27 C
    tnom = 27 C
    tempeffects = all
    gmindc = 1 pS
    rabsshort = 1 mOhm

Notice from spectre during DC analysis `dcOp', during Monte Carlo analysis `mc1'.
    Bad pivoting is found during DC analysis. Option dc_pivot_check=yes is recommended for possible improvement of convergence.


Maximum value achieved for any signal of each quantity: 
V: V(net2) = 3.3 V
I: I(V0:p) = 6.531 uA
Maximum value of each quantity, excluding Verilog-A modules or dangling current sources:
V: V(vout_filt) = 1.6 V
I: I(V0:p) = 6.531 uA

Warning from spectre during check, during DC analysis `dcOp', during Monte Carlo analysis `mc1'.
    WARNING (CMI-2943): Parameter checks have been ignored because the valid value for parameter 'trise' could not be found in 'C1'.
    WARNING (CMI-2943): Parameter checks have been ignored because the valid value for parameter 'trise' could not be found in 'I0.R2.CM'.
    WARNING (CMI-2943): Parameter checks have been ignored because the valid value for parameter 'trise' could not be found in 'I0.R2.CS1'.
    WARNING (CMI-2943): Parameter checks have been ignored because the valid value for parameter 'trise' could not be found in 'I0.R2.CS0'.
    WARNING (CMI-2943): Parameter checks have been ignored because the valid value for parameter 'trise' could not be found in 'I0.C8<3>.C1'.
        Further occurrences of this warning will be suppressed.

Convergence achieved in 19 iterations.
DC simulation time: CPU = 4.535 ms, elapsed = 5.94592 ms.
Total time required for dc analysis `dcOp': CPU = 4.869 ms, elapsed = 6.28495 ms, util. = 77.5%.
Time accumulated: CPU = 6.71767 s, elapsed = 7.43564 s.
Peak resident memory used = 213 Mbytes.


Notice from spectre during Monte Carlo analysis `mc1'.
    34 warnings suppressed.

dcOpInfo: writing operating point information to rawfile.

Opening the PSF file ../psf/mc1_separate/012/dcOpInfo.info ...

************************************************
Transient Analysis `tran': time = (0 s -> 40 ms)
************************************************

Opening the PSF file ../psf/mc1_separate/012/tran.tran.tran ...

Notice from spectre during IC analysis, during transient analysis `tran', during Monte Carlo analysis `mc1'.
    Bad pivoting is found during DC analysis. Option dc_pivot_check=yes is recommended for possible improvement of convergence.
Warning from spectre during check, during IC analysis, during transient analysis `tran', during Monte Carlo analysis `mc1'.
    WARNING (CMI-2943): Parameter checks have been ignored because the valid value for parameter 'trise' could not be found in 'C1'.
    WARNING (CMI-2943): Parameter checks have been ignored because the valid value for parameter 'trise' could not be found in 'I0.R2.CM'.
    WARNING (CMI-2943): Parameter checks have been ignored because the valid value for parameter 'trise' could not be found in 'I0.R2.CS1'.
    WARNING (CMI-2943): Parameter checks have been ignored because the valid value for parameter 'trise' could not be found in 'I0.R2.CS0'.
    WARNING (CMI-2943): Parameter checks have been ignored because the valid value for parameter 'trise' could not be found in 'I0.C8<3>.C1'.
        Further occurrences of this warning will be suppressed.

Convergence achieved in 19 iterations.
DC simulation time: CPU = 2.44 ms, elapsed = 2.44093 ms.
Important parameter values:
    start = 0 s
    outputstart = 0 s
    stop = 40 ms
    step = 40 us
    maxstep = 400 us
    ic = all
    useprevic = no
    skipdc = no
    reltol = 10e-06
    abstol(V) = 1 uV
    abstol(I) = 1 pA
    temp = 27 C
    tnom = 27 C
    tempeffects = all
    errpreset = conservative
    method = gear2only
    lteratio = 10
    relref = alllocal
    cmin = 0 F
    gmin = 1 pS
    rabsshort = 1 mOhm


Notice from spectre during transient analysis `tran', during Monte Carlo analysis `mc1'.
    Multithreading is disabled due to the size of the design being too small.


Output and IC/nodeset summary:
                 save   8       (current)
                 save   83      (voltage)

    tran: time = 1.025 ms    (2.56 %), step = 48.13 us     (120 m%)
    tran: time = 3.039 ms     (7.6 %), step = 47.15 us     (118 m%)
    tran: time = 5.006 ms    (12.5 %), step = 49.91 us     (125 m%)
    tran: time = 7.019 ms    (17.5 %), step = 48.6 us      (122 m%)
    tran: time = 9.033 ms    (22.6 %), step = 47.52 us     (119 m%)
    tran: time = 11.05 ms    (27.6 %), step = 46.69 us     (117 m%)
    tran: time = 13.01 ms    (32.5 %), step = 49.12 us     (123 m%)
    tran: time = 15.03 ms    (37.6 %), step = 47.95 us     (120 m%)
    tran: time = 17.04 ms    (42.6 %), step = 47.02 us     (118 m%)
    tran: time = 19.01 ms    (47.5 %), step = 49.68 us     (124 m%)
    tran: time = 21.02 ms    (52.6 %), step = 48.42 us     (121 m%)
    tran: time = 23.04 ms    (57.6 %), step = 47.38 us     (118 m%)
    tran: time = 25 ms       (62.5 %), step = 50 us        (125 m%)
    tran: time = 27.02 ms    (67.5 %), step = 48.92 us     (122 m%)
    tran: time = 29.03 ms    (72.6 %), step = 47.77 us     (119 m%)
    tran: time = 31.04 ms    (77.6 %), step = 46.88 us     (117 m%)
    tran: time = 33.01 ms    (82.5 %), step = 49.45 us     (124 m%)
    tran: time = 35.02 ms    (87.6 %), step = 48.23 us     (121 m%)
    tran: time = 37.04 ms    (92.6 %), step = 47.23 us     (118 m%)
    tran: time = 39 ms       (97.5 %), step = 50 us        (125 m%)
Number of accepted tran steps =             851

Maximum value achieved for any signal of each quantity: 
V: V(net2) = 3.3 V
I: I(V0:p) = 6.531 uA
Maximum value of each quantity, excluding Verilog-A modules or dangling current sources:
V: V(vout_filt) = 1.614 V
I: I(V0:p) = 6.531 uA

~~~~~~~~~~~~~~~~~~~~~~~~~~~~~~~~~
Post-Transient Simulation Summary
~~~~~~~~~~~~~~~~~~~~~~~~~~~~~~~~~
   -   To further speed up simulation, consider
          add ++aps on command line
   -   Non-default settings that could significantly slow down simulation
          errpreset = conservative, default moderate
          reltol = 10e-06, default 100e-06 (conservative)
~~~~~~~~~~~~~~~~~~~~~~~~~~~~~~~~~


During simulation, the CPU load for active processors is :
         0 (20.8 %)      1 (11.9 %)      2 (5.3 %)       3 (23.4 %)
         4 (6.5 %)       5 (6.2 %)       6 (99.7 %)      7 (54.8 %)
         8 (17.6 %)      9 (4.6 %)      10 (12.4 %)     11 (12.3 %)
        12 (15.0 %)     13 (5.2 %)      14 (13.2 %)     15 (35.7 %)
        16 (14.6 %)     17 (4.7 %)      18 (47.8 %)     19 (92.1 %)
        20 (46.8 %)     21 (11.6 %)     22 (14.3 %)     23 (17.4 %)
        24 (99.9 %)     25 (28.8 %)     26 (34.3 %)     27 (1.7 %)
        28 (14.1 %)     29 (99.9 %)     30 (34.0 %)     31 (27.7 %)
        32 (4.4 %)      33 (7.8 %)      34 (71.5 %)     35 (11.2 %)
        36 (26.7 %)     37 (12.9 %)     38 (45.9 %)     39 (51.4 %)
        40 (100.0 %)    41 (11.5 %)     42 (10.3 %)     43 (5.7 %)
        44 (3.7 %)      45 (4.4 %)      46 (32.4 %)     47 (18.3 %)
        Total: 1352.7%
Initial condition solution time: CPU = 2.479 ms, elapsed = 2.48098 ms.
Intrinsic tran analysis time:    CPU = 438.89 ms, elapsed = 440.306 ms.
Total time required for tran analysis `tran': CPU = 442.927 ms, elapsed = 444.93 ms, util. = 99.5%.
Time accumulated: CPU = 7.16655 s, elapsed = 7.88869 s.
Peak resident memory used = 213 Mbytes.


Notice from spectre during transient analysis `tran', during Monte Carlo analysis `mc1'.
    34 warnings suppressed.

finalTimeOP: writing operating point information to rawfile.

Opening the PSF file ../psf/mc1_separate/012/finalTimeOP.info ...
modelParameter: writing model parameter values to rawfile.

Opening the PSF file ../psf/mc1_separate/012/modelParameter.info ...
element: writing instance parameter values to rawfile.

Opening the PSF file ../psf/mc1_separate/012/element.info ...
outputParameter: writing output parameter values to rawfile.

Opening the PSF file ../psf/mc1_separate/012/outputParameter.info ...
designParamVals: writing netlist parameters to rawfile.

Opening the PSFASCII file ../psf/mc1_separate/012/designParamVals.info ...
primitives: writing primitives to rawfile.

Opening the PSFASCII file ../psf/mc1_separate/012/primitives.info.primitives ...
subckts: writing subcircuits to rawfile.

Opening the PSFASCII file ../psf/mc1_separate/012/subckts.info.subckts ...
    mc1: iteration = 12          (91.7 %), step = 1            (8.33 %)
13 100.00% 

*****************************************************************************************
* 
* INFO: AMS_processOption = C35B4C3
* 
* INFO: Valid Modules  PIP VG5 HIRES
* 
*****************************************************************************************


******************
DC Analysis `dcOp'
******************

Opening the PSF file ../psf/mc1_separate/013/dcOp.dc ...
Important parameter values:
    reltol = 100e-06
    abstol(V) = 1 uV
    abstol(I) = 1 pA
    temp = 27 C
    tnom = 27 C
    tempeffects = all
    gmindc = 1 pS
    rabsshort = 1 mOhm

Notice from spectre during DC analysis `dcOp', during Monte Carlo analysis `mc1'.
    Bad pivoting is found during DC analysis. Option dc_pivot_check=yes is recommended for possible improvement of convergence.


Maximum value achieved for any signal of each quantity: 
V: V(net2) = 3.3 V
I: I(V0:p) = 6.188 uA
Maximum value of each quantity, excluding Verilog-A modules or dangling current sources:
V: V(vout_filt) = 1.601 V
I: I(V0:p) = 6.188 uA

Warning from spectre during check, during DC analysis `dcOp', during Monte Carlo analysis `mc1'.
    WARNING (CMI-2943): Parameter checks have been ignored because the valid value for parameter 'trise' could not be found in 'C1'.
    WARNING (CMI-2943): Parameter checks have been ignored because the valid value for parameter 'trise' could not be found in 'I0.R2.CM'.
    WARNING (CMI-2943): Parameter checks have been ignored because the valid value for parameter 'trise' could not be found in 'I0.R2.CS1'.
    WARNING (CMI-2943): Parameter checks have been ignored because the valid value for parameter 'trise' could not be found in 'I0.R2.CS0'.
    WARNING (CMI-2943): Parameter checks have been ignored because the valid value for parameter 'trise' could not be found in 'I0.C8<3>.C1'.
        Further occurrences of this warning will be suppressed.

Convergence achieved in 17 iterations.
DC simulation time: CPU = 4.448 ms, elapsed = 5.84507 ms.
Total time required for dc analysis `dcOp': CPU = 4.775 ms, elapsed = 6.17003 ms, util. = 77.4%.
Time accumulated: CPU = 7.2074 s, elapsed = 7.94094 s.
Peak resident memory used = 213 Mbytes.


Notice from spectre during Monte Carlo analysis `mc1'.
    34 warnings suppressed.

dcOpInfo: writing operating point information to rawfile.

Opening the PSF file ../psf/mc1_separate/013/dcOpInfo.info ...

************************************************
Transient Analysis `tran': time = (0 s -> 40 ms)
************************************************

Opening the PSF file ../psf/mc1_separate/013/tran.tran.tran ...

Notice from spectre during IC analysis, during transient analysis `tran', during Monte Carlo analysis `mc1'.
    Bad pivoting is found during DC analysis. Option dc_pivot_check=yes is recommended for possible improvement of convergence.
Warning from spectre during check, during IC analysis, during transient analysis `tran', during Monte Carlo analysis `mc1'.
    WARNING (CMI-2943): Parameter checks have been ignored because the valid value for parameter 'trise' could not be found in 'C1'.
    WARNING (CMI-2943): Parameter checks have been ignored because the valid value for parameter 'trise' could not be found in 'I0.R2.CM'.
    WARNING (CMI-2943): Parameter checks have been ignored because the valid value for parameter 'trise' could not be found in 'I0.R2.CS1'.
    WARNING (CMI-2943): Parameter checks have been ignored because the valid value for parameter 'trise' could not be found in 'I0.R2.CS0'.
    WARNING (CMI-2943): Parameter checks have been ignored because the valid value for parameter 'trise' could not be found in 'I0.C8<3>.C1'.
        Further occurrences of this warning will be suppressed.

Convergence achieved in 17 iterations.
DC simulation time: CPU = 2.264 ms, elapsed = 2.28 ms.
Important parameter values:
    start = 0 s
    outputstart = 0 s
    stop = 40 ms
    step = 40 us
    maxstep = 400 us
    ic = all
    useprevic = no
    skipdc = no
    reltol = 10e-06
    abstol(V) = 1 uV
    abstol(I) = 1 pA
    temp = 27 C
    tnom = 27 C
    tempeffects = all
    errpreset = conservative
    method = gear2only
    lteratio = 10
    relref = alllocal
    cmin = 0 F
    gmin = 1 pS
    rabsshort = 1 mOhm


Notice from spectre during transient analysis `tran', during Monte Carlo analysis `mc1'.
    Multithreading is disabled due to the size of the design being too small.


Output and IC/nodeset summary:
                 save   8       (current)
                 save   83      (voltage)

    tran: time = 1.021 ms    (2.55 %), step = 48.45 us     (121 m%)
    tran: time = 3.035 ms    (7.59 %), step = 47.4 us      (118 m%)
    tran: time = 5.002 ms    (12.5 %), step = 50 us        (125 m%)
    tran: time = 7.015 ms    (17.5 %), step = 48.92 us     (122 m%)
    tran: time = 9.029 ms    (22.6 %), step = 47.77 us     (119 m%)
    tran: time = 11.04 ms    (27.6 %), step = 46.88 us     (117 m%)
    tran: time = 13.01 ms    (32.5 %), step = 49.43 us     (124 m%)
    tran: time = 15.02 ms    (37.6 %), step = 48.2 us      (121 m%)
    tran: time = 17.04 ms    (42.6 %), step = 47.2 us      (118 m%)
    tran: time = 19.01 ms    (47.5 %), step = 49.99 us     (125 m%)
    tran: time = 21.02 ms    (52.5 %), step = 48.66 us     (122 m%)
    tran: time = 23.03 ms    (57.6 %), step = 47.56 us     (119 m%)
    tran: time = 25.05 ms    (62.6 %), step = 46.71 us     (117 m%)
    tran: time = 27.01 ms    (67.5 %), step = 49.15 us     (123 m%)
    tran: time = 29.03 ms    (72.6 %), step = 47.96 us     (120 m%)
    tran: time = 31.04 ms    (77.6 %), step = 47.02 us     (118 m%)
    tran: time = 33.01 ms    (82.5 %), step = 49.68 us     (124 m%)
    tran: time = 35.02 ms    (87.6 %), step = 48.41 us     (121 m%)
    tran: time = 37.04 ms    (92.6 %), step = 47.36 us     (118 m%)
    tran: time = 39 ms       (97.5 %), step = 50 us        (125 m%)
Number of accepted tran steps =             851

Maximum value achieved for any signal of each quantity: 
V: V(net2) = 3.3 V
I: I(V0:p) = 6.189 uA
Maximum value of each quantity, excluding Verilog-A modules or dangling current sources:
V: V(vout_filt) = 1.614 V
I: I(V0:p) = 6.189 uA

~~~~~~~~~~~~~~~~~~~~~~~~~~~~~~~~~
Post-Transient Simulation Summary
~~~~~~~~~~~~~~~~~~~~~~~~~~~~~~~~~
   -   To further speed up simulation, consider
          add ++aps on command line
   -   Non-default settings that could significantly slow down simulation
          errpreset = conservative, default moderate
          reltol = 10e-06, default 100e-06 (conservative)
~~~~~~~~~~~~~~~~~~~~~~~~~~~~~~~~~


During simulation, the CPU load for active processors is :
         0 (19.8 %)      1 (11.3 %)      2 (5.0 %)       3 (22.2 %)
         4 (6.2 %)       5 (5.9 %)       6 (99.8 %)      7 (51.6 %)
         8 (16.8 %)      9 (4.5 %)      10 (11.8 %)     11 (11.6 %)
        12 (14.5 %)     13 (5.4 %)      14 (13.7 %)     15 (37.7 %)
        16 (14.1 %)     17 (4.4 %)      18 (45.0 %)     19 (88.8 %)
        20 (44.2 %)     21 (17.0 %)     22 (15.0 %)     23 (17.4 %)
        24 (99.9 %)     25 (31.2 %)     26 (33.4 %)     27 (2.6 %)
        28 (19.3 %)     29 (98.6 %)     30 (32.2 %)     31 (31.4 %)
        32 (4.4 %)      33 (7.4 %)      34 (67.4 %)     35 (10.7 %)
        36 (28.0 %)     37 (13.8 %)     38 (43.3 %)     39 (48.4 %)
        40 (100.0 %)    41 (11.0 %)     42 (10.4 %)     43 (5.6 %)
        44 (9.6 %)      45 (5.1 %)      46 (30.6 %)     47 (18.1 %)
        Total: 1345.7%
Initial condition solution time: CPU = 2.305 ms, elapsed = 2.321 ms.
Intrinsic tran analysis time:    CPU = 441.678 ms, elapsed = 443.248 ms.
Total time required for tran analysis `tran': CPU = 445.56 ms, elapsed = 447.77 ms, util. = 99.5%.
Time accumulated: CPU = 7.65902 s, elapsed = 8.39696 s.
Peak resident memory used = 213 Mbytes.


Notice from spectre during transient analysis `tran', during Monte Carlo analysis `mc1'.
    34 warnings suppressed.

finalTimeOP: writing operating point information to rawfile.

Opening the PSF file ../psf/mc1_separate/013/finalTimeOP.info ...
modelParameter: writing model parameter values to rawfile.

Opening the PSF file ../psf/mc1_separate/013/modelParameter.info ...
element: writing instance parameter values to rawfile.

Opening the PSF file ../psf/mc1_separate/013/element.info ...
outputParameter: writing output parameter values to rawfile.

Opening the PSF file ../psf/mc1_separate/013/outputParameter.info ...
designParamVals: writing netlist parameters to rawfile.

Opening the PSFASCII file ../psf/mc1_separate/013/designParamVals.info ...
primitives: writing primitives to rawfile.

Opening the PSFASCII file ../psf/mc1_separate/013/primitives.info.primitives ...
subckts: writing subcircuits to rawfile.

Opening the PSFASCII file ../psf/mc1_separate/013/subckts.info.subckts ...
    mc1: iteration = 13           (100 %), step = 1            (8.33 %)
Total time required for montecarlo analysis `mc1': CPU = 7.18691 s, elapsed = 7.44044 s, util. = 96.6%.
Time accumulated: CPU = 7.68348 s, elapsed = 8.4352 s.
Peak resident memory used = 213 Mbytes.

Licensing Information:
Lic Summary:
[10:46:07.079738] Cdslmd servers:3000@lic08.ug.kth.se:29000@lic06.ug.kth.se
[10:46:07.604066] Feature usage summary:
[10:46:07.604067] Virtuoso_Multi_mode_Simulation


Aggregate audit (10:46:07 AM, Thur Apr 16, 2026):
Time used: CPU = 7.7 s, elapsed = 8.45 s, util. = 91.1%.
Time spent in licensing: elapsed = 29.1 ms.
Peak memory used = 213 Mbytes.
Simulation started at: 10:45:59 AM, Thur Apr 16, 2026, ended at: 10:46:07 AM, Thur Apr 16, 2026, with elapsed time (wall clock): 8.45 s.
spectre completes with 0 errors, 157 warnings, and 77 notices.
