
Spectre (R) Circuit Simulator
Version 24.1.0.288.isr5 64bit -- 3 Apr 2025
Copyright (C) 1989-2025 Cadence Design Systems, Inc. All rights reserved worldwide. Cadence and Spectre are registered trademarks of Cadence Design Systems, Inc. All others are the property of their respective holders.

Includes RSA BSAFE(R) Cryptographic or Security Protocol Software from RSA Security, Inc.

User: davidevi   Host: il2244vt26_davidevi   HostID: 11AC2C00   PID: 1049535
Memory  available: 3.0434 TB  physical: 3.2467 TB
Linux   : Rocky Linux release 8.10 (Green Obsidian)
CPU Type: Intel(R) Xeon(R) CPU E7-8857 v2 @ 3.00GHz
        Socket: Processors [Frequency]
        0:       0 [2999.9],  1 [1200.0],  2 [2999.9],  3 [1200.0],  4 [1200.0]
                 5 [3600.0],  6 [2400.0],  7 [1200.0],  8 [2999.9],  9 [2999.9]
                10 [1200.0], 11 [1200.0]
        1:      12 [1200.0], 13 [1200.0], 14 [1200.0], 15 [3399.5], 16 [1200.0]
                17 [2300.0], 18 [3399.5], 19 [2500.0], 20 [2600.0], 21 [3600.0]
                22 [3399.5], 23 [1200.0]
        2:      24 [1200.0], 25 [2999.9], 26 [2500.0], 27 [1200.0], 28 [1200.0]
                29 [1200.0], 30 [1200.0], 31 [2999.9], 32 [1200.0], 33 [1200.0]
                34 [3600.0], 35 [1200.0]
        3:      36 [2999.9], 37 [1200.0], 38 [3600.0], 39 [2999.9], 40 [2999.9]
                41 [1200.0], 42 [1200.0], 43 [1200.0], 44 [2999.9], 45 [2800.0]
                46 [3500.0], 47 [1200.0]
        
System load averages (1min, 5min, 15min) : 23.1 %, 18.6 %, 16.5 %
HPC is enabled


Simulating `input.scs' on il2244vt26_davidevi at 9:07:24 AM, Thur Apr 16, 2026 (process id: 1049535).
Current working directory: /home/davidevi/Desktop/myproject/Sim/VGA/VGA_1_tb/adexl/results/data/MonteCarlo.3/7/Linerity_MC/groupRunDataDir/netlist
Command line:
    /opt/tools/cadence/installs/SPECTRE241/tools/bin/spectre -64  \
        input.scs +escchars +log ../psf/spectre.out -format psfbin  \
        +rtsf -raw ../psf +aps +mt +lqtimeout 900 -maxw 5 -maxn 5  \
        +param /opt/pdk/ams/410/spectre/ams_range.lmts -env ade  \
        -ahdllibdir  \
        /home/davidevi/Desktop/myproject/Sim/VGA/VGA_1_tb/adexl/results/data/MonteCarlo.3/sharedData/Job471/ahdl/input.ahdlSimDB  \
        +logstatus  \
        +adespetkn=0001089D13A302B663E41FB550AF0DF415A679A322D5069144BF588C12F604E07EF416DC01A319B562BB63D343E005A945A3509411A233BC65E958B75AF74F924CAA79D15D9175FF34986BDD0AF002BA50FD7FD707E002A700AC1C841DF643EB0EA979D12FF874D3349879D118F874D334981031BE33D2185D7800003657

Simulation Id: qzN5x4QqGoyNYTx2
Licensing Information:
[09:07:24.121778] Configured Lic search path (24.01-s002): 3000@lic08.ug.kth.se:29000@lic06.ug.kth.se

Licensing Information:
[09:07:24.464459] Periodic Lic check successful

Loading /opt/tools/cadence/installs/SPECTRE241/tools.lnx86/cmi/lib/64bit/5.0/libinfineon_sh.so ...
Loading /opt/tools/cadence/installs/SPECTRE241/tools.lnx86/cmi/lib/64bit/5.0/libphilips_I_sh.so ...
Loading /opt/tools/cadence/installs/SPECTRE241/tools.lnx86/cmi/lib/64bit/5.0/libphilips_sh.so ...
Loading /opt/tools/cadence/installs/SPECTRE241/tools.lnx86/cmi/lib/64bit/5.0/libsparam_sh.so ...
Loading /opt/tools/cadence/installs/SPECTRE241/tools.lnx86/cmi/lib/64bit/5.0/libstmodels_sh.so ...

Warning from spectre.
    WARNING (SPECTRE-691): This CPU processor does not support x86 advanced vector extensions instructions. This may affect math operations and slow down the simulation.

Reading file:  /home/davidevi/Desktop/myproject/Sim/VGA/VGA_1_tb/adexl/results/data/MonteCarlo.3/7/Linerity_MC/groupRunDataDir/netlist/input.scs
Reading file:  /opt/pdk/ams/410/spectre/ams_range.lmts

Warning from spectre during read of parameter soft limits file `/opt/pdk/ams/410/spectre/ams_range.lmts', during circuit read-in.
    WARNING (SPECTRE-8360): line 1511: `ac' is an undefined primitive device.
    WARNING (SPECTRE-8360): line 1512: `ac' is an undefined primitive device.
    WARNING (SPECTRE-8360): line 1513: `ac' is an undefined primitive device.
    WARNING (SPECTRE-8360): line 1514: `ac' is an undefined primitive device.
    WARNING (SPECTRE-8360): line 1515: `ac' is an undefined primitive device.
        Further occurrences of this warning will be suppressed.

Reading file:  /opt/tools/cadence/installs/SPECTRE241/tools.lnx86/spectre/etc/configs/spectre.cfg
Reading file:  /opt/pdk/ams/410/spectre/c35/soac/soac.scs
Reading file:  /opt/pdk/ams/410/spectre/c35/soac/processOption.scs
Reading file:  /opt/pdk/ams/410/spectre/c35/soac/process.scs
Reading file:  /opt/pdk/ams/410/spectre/c35/soac/soac.va

Warning from spectre during AHDL read-in.
    WARNING (VACOMP-2435): The environment variable CDS_AHDLCMI_ENABLE is no longer supported. Therefore, the simulator will use the default compiled C code flow.

Reading link:  /opt/tools/cadence/installs/SPECTRE241/tools.lnx86/spectre/etc/ahdl/constants.h
Reading file:  /opt/tools/cadence/installs/SPECTRE241/tools.lnx86/spectre/etc/ahdl/constants.vams
Reading link:  /opt/tools/cadence/installs/SPECTRE241/tools.lnx86/spectre/etc/ahdl/discipline.h
Reading file:  /opt/tools/cadence/installs/SPECTRE241/tools.lnx86/spectre/etc/ahdl/disciplines.vams
Reading file:  /opt/pdk/ams/410/spectre/c35/processOption/C35B4C3.scs
Reading file:  /opt/pdk/ams/410/spectre/c35/soac/cmos53.scs
Reading file:  /opt/pdk/ams/410/spectre/c35/soac/res.scs
Reading file:  /opt/pdk/ams/410/spectre/c35/soac/cap.scs
Reading file:  /opt/pdk/ams/410/spectre/c35/soac/bip.scs
Reading file:  /opt/pdk/ams/410/spectre/c35/soac/ind.scs
Reading file:  /opt/pdk/ams/410/spectre/c35/soac/esddiode.scs
Time for NDB Parsing: CPU = 169.506 ms, elapsed = 324.813 ms.
Time accumulated: CPU = 374.913 ms, elapsed = 324.816 ms.
Peak resident memory used = 175 Mbytes.

Existing shared object for module modn_ahdl is up to date.
Installed compiled interface for modn_ahdl.
Existing shared object for module modp_ahdl is up to date.
Installed compiled interface for modp_ahdl.
Existing shared object for module cpoly_ahdl is up to date.
Installed compiled interface for cpoly_ahdl.
Existing shared object for module rpolyh_ahdl is up to date.
Installed compiled interface for rpolyh_ahdl.
Existing shared object for module bsource_19b458 is up to date.
Installed compiled interface for bsource_19b458.
Time for Elaboration: CPU = 59.126 ms, elapsed = 61.3089 ms.
Time accumulated: CPU = 434.172 ms, elapsed = 386.258 ms.
Peak resident memory used = 188 Mbytes.


Notice from spectre during hierarchy flattening.
    The value 'psf' specified for the 'checklimitdest' option will no longer be supported in future releases. Use 'spectre -h' to see other recommended values for the 'checklimitdest' option.


*****************************************************************************************
* 
* INFO: AMS_processOption = C35B4C3
* 
* INFO: Valid Modules  PIP VG5 HIRES
* 
*****************************************************************************************


Time for EDB Visiting: CPU = 8.911 ms, elapsed = 8.91089 ms.
Time accumulated: CPU = 443.236 ms, elapsed = 395.322 ms.
Peak resident memory used = 191 Mbytes.

Loading /opt/tools/cadence/installs/SPECTRE241/tools.lnx86/mdl/lib/64bit/libSpectreEH_sh.so ...

Warning from spectre during initial setup.
    WARNING (SPECTRE-16460): SOAC_cvarm_vspsub:Specified subcircuit master `cvarm' was not found.
    WARNING (SPECTRE-16462): SOAC_cvarm_vspsub:Error in specification of subcircuit master. Assert is ignored.
    WARNING (SPECTRE-16460): SOAC_cvarm_vbs:Specified subcircuit master `cvarm' was not found.
    WARNING (SPECTRE-16462): SOAC_cvarm_vbs:Error in specification of subcircuit master. Assert is ignored.
    WARNING (SPECTRE-16460): SOAC_cvarm_vgb:Specified subcircuit master `cvarm' was not found.
    WARNING (SPECTRE-16462): SOAC_cvarm_vgb:Error in specification of subcircuit master. Assert is ignored.
    WARNING (SPECTRE-16460): SOAC_cvart_vspsub:Specified subcircuit master `cvart' was not found.
    WARNING (SPECTRE-16462): SOAC_cvart_vspsub:Error in specification of subcircuit master. Assert is ignored.
    WARNING (SPECTRE-16460): SOAC_cvart_vbs:Specified subcircuit master `cvart' was not found.
        Further occurrences of this warning will be suppressed.
    WARNING (SPECTRE-16462): SOAC_cvart_vbs:Error in specification of subcircuit master. Assert is ignored.
        Further occurrences of this warning will be suppressed.
Notice from spectre during topology check.
    Only one connection to the following 54 nodes:
        I0.MN6.psub!
        I0.MN5.psub!
        I0.MN4.psub!
        I0.MN3.psub!
        I0.MN2.psub!
        Further occurrences of this notice will be suppressed.
Notice from spectre during initial setup.
    Multithreading is disabled due to the size of the design being too small.


Netlist title:
        // Point Netlist Generated on: Apr 16 09:07:23 2026


Global user options:
         psfversion = 1.4.0
            vabstol = 1e-06
            iabstol = 1e-12
               temp = 85
           homotopy = 5
              limit = delta
         compatible = spice2
               gmin = 1e-12
             rforce = 1
           maxnotes = 5
           maxwarns = 5
             digits = 5
               cols = 80
             pivrel = 0.001
           sensfile = ../psf/sens.output
     checklimitdest = psf
     enable_pre_ver = yes
      ignorezerovar = yes
               save = allpub
             reltol = 0.0001
               tnom = 27
             scalem = 1
              scale = 1

Scoped user options:

Circuit inventory:
              nodes 88
            bsim3v3 35    
     bsource_19b458 2     
          capacitor 38    
         cpoly_ahdl 17    
            isource 1     
          modn_ahdl 19    
          modp_ahdl 16    
           resistor 1     
        rpolyh_ahdl 2     
            vsource 8     

Analysis and control statement inventory:
                 dc 1     
               info 8     
         montecarlo 1     
               tran 1     

Output statements:
             .probe 0     
           .measure 0     
               save 0     

Design checks inventory:
          paramtest 55    
             assert 175   


Notice from spectre during initial setup.
    APS enabled.
    1 notice suppressed.
    72 warnings suppressed.

Time for parsing: CPU = 18.955 ms, elapsed = 629.837 ms.
Time accumulated: CPU = 462.296 ms, elapsed = 1.02526 s.
Peak resident memory used = 198 Mbytes.

~~~~~~~~~~~~~~~~~~~~~~
Pre-Simulation Summary
~~~~~~~~~~~~~~~~~~~~~~
   -   (APS) Multi-threading. The recommended number of threads is 1, consider adding +mt=1 on command line.
~~~~~~~~~~~~~~~~~~~~~~

*************************************************
Monte Carlo Analysis `mc1': iteration = (1 -> 50)
*************************************************
Important parameter values:
    seed = 12345
    sampling = lds
    variations = all
    firstrun = 1
    numruns = 50
    nullmfactorcorrelation = no
    donominal = yes
    method = standard

**** Performing nominal run for `mc1'

******************
DC Analysis `dcOp'
******************

Notice from spectre during DC analysis `dcOp', during Monte Carlo analysis `mc1'.
    No checklimit analysis defined for asserts. A default checklimit analysis 'SpectreChecklimitAnal' has been created with all asserts enabled.


Opening the PSF file ../psf/nom/dcOp.dc ...
Important parameter values:
    reltol = 100e-06
    abstol(V) = 1 uV
    abstol(I) = 1 pA
    temp = 85 C
    tnom = 27 C
    tempeffects = all
    gmindc = 1 pS
    rabsshort = 1 mOhm

Notice from spectre during DC analysis `dcOp', during Monte Carlo analysis `mc1'.
    Bad pivoting is found during DC analysis. Option dc_pivot_check=yes is recommended for possible improvement of convergence.


Maximum value achieved for any signal of each quantity: 
V: V(S<0>) = 3.3 V
I: I(V0:p) = 6.435 uA
Maximum value of each quantity, excluding Verilog-A modules or dangling current sources:
V: V(vout_filt) = 1.6 V
I: I(V0:p) = 6.435 uA

Warning from spectre during check, during DC analysis `dcOp', during Monte Carlo analysis `mc1'.
    WARNING (CMI-2943): Parameter checks have been ignored because the valid value for parameter 'trise' could not be found in 'C1'.
    WARNING (CMI-2943): Parameter checks have been ignored because the valid value for parameter 'trise' could not be found in 'I0.R2.CM'.
    WARNING (CMI-2943): Parameter checks have been ignored because the valid value for parameter 'trise' could not be found in 'I0.R2.CS1'.
    WARNING (CMI-2943): Parameter checks have been ignored because the valid value for parameter 'trise' could not be found in 'I0.R2.CS0'.
    WARNING (CMI-2943): Parameter checks have been ignored because the valid value for parameter 'trise' could not be found in 'I0.C8<3>.C1'.
        Further occurrences of this warning will be suppressed.

Convergence achieved in 19 iterations.
DC simulation time: CPU = 88.651 ms, elapsed = 92.6852 ms.
Total time required for dc analysis `dcOp': CPU = 88.765 ms, elapsed = 92.7961 ms, util. = 95.7%.
Time accumulated: CPU = 575.033 ms, elapsed = 1.1432 s.
Peak resident memory used = 207 Mbytes.


Notice from spectre during Monte Carlo analysis `mc1'.
    34 warnings suppressed.

dcOpInfo: writing operating point information to rawfile.

Opening the PSF file ../psf/nom/dcOpInfo.info ...

************************************************
Transient Analysis `tran': time = (0 s -> 40 ms)
************************************************

Notice from spectre during IC analysis, during transient analysis `tran', during Monte Carlo analysis `mc1'.
    Bad pivoting is found during DC analysis. Option dc_pivot_check=yes is recommended for possible improvement of convergence.
Warning from spectre during check, during IC analysis, during transient analysis `tran', during Monte Carlo analysis `mc1'.
    WARNING (CMI-2943): Parameter checks have been ignored because the valid value for parameter 'trise' could not be found in 'C1'.
    WARNING (CMI-2943): Parameter checks have been ignored because the valid value for parameter 'trise' could not be found in 'I0.R2.CM'.
    WARNING (CMI-2943): Parameter checks have been ignored because the valid value for parameter 'trise' could not be found in 'I0.R2.CS1'.
    WARNING (CMI-2943): Parameter checks have been ignored because the valid value for parameter 'trise' could not be found in 'I0.R2.CS0'.
    WARNING (CMI-2943): Parameter checks have been ignored because the valid value for parameter 'trise' could not be found in 'I0.C8<3>.C1'.
        Further occurrences of this warning will be suppressed.

Convergence achieved in 2 iterations.
DC simulation time: CPU = 1.15 ms, elapsed = 1.15085 ms.

Opening the PSF file ../psf/nom/tran.tran.tran ...
Important parameter values:
    start = 0 s
    outputstart = 0 s
    stop = 40 ms
    step = 40 us
    maxstep = 400 us
    ic = all
    useprevic = no
    skipdc = no
    reltol = 10e-06
    abstol(V) = 1 uV
    abstol(I) = 1 pA
    temp = 85 C
    tnom = 27 C
    tempeffects = all
    errpreset = conservative
    method = gear2only
    lteratio = 10
    relref = alllocal
    cmin = 0 F
    gmin = 1 pS
    rabsshort = 1 mOhm


Notice from spectre during transient analysis `tran', during Monte Carlo analysis `mc1'.
    Multithreading is disabled due to the size of the design being too small.


Output and IC/nodeset summary:
                 save   8       (current)
                 save   87      (voltage)

    tran: time = 1.021 ms    (2.55 %), step = 48.35 us     (121 m%)
    tran: time = 3.035 ms    (7.59 %), step = 47.33 us     (118 m%)
    tran: time = 5.002 ms    (12.5 %), step = 50 us        (125 m%)
    tran: time = 7.015 ms    (17.5 %), step = 48.87 us     (122 m%)
    tran: time = 9.029 ms    (22.6 %), step = 47.75 us     (119 m%)
    tran: time = 11.04 ms    (27.6 %), step = 46.87 us     (117 m%)
    tran: time = 13.01 ms    (32.5 %), step = 49.44 us     (124 m%)
    tran: time = 15.02 ms    (37.6 %), step = 48.23 us     (121 m%)
    tran: time = 17.04 ms    (42.6 %), step = 47.24 us     (118 m%)
    tran: time = 19 ms       (47.5 %), step = 50 us        (125 m%)
    tran: time = 21.02 ms    (52.5 %), step = 48.75 us     (122 m%)
    tran: time = 23.03 ms    (57.6 %), step = 47.64 us     (119 m%)
    tran: time = 25.04 ms    (62.6 %), step = 46.79 us     (117 m%)
    tran: time = 27.01 ms    (67.5 %), step = 49.3 us      (123 m%)
    tran: time = 29.02 ms    (72.6 %), step = 48.12 us     (120 m%)
    tran: time = 31.04 ms    (77.6 %), step = 47.15 us     (118 m%)
    tran: time = 33 ms       (82.5 %), step = 49.93 us     (125 m%)
    tran: time = 35.02 ms    (87.5 %), step = 48.63 us     (122 m%)
    tran: time = 37.03 ms    (92.6 %), step = 47.55 us     (119 m%)
    tran: time = 39.05 ms    (97.6 %), step = 46.71 us     (117 m%)
Number of accepted tran steps =             851

Maximum value achieved for any signal of each quantity: 
V: V(S<0>) = 3.3 V
I: I(V0:p) = 6.435 uA
Maximum value of each quantity, excluding Verilog-A modules or dangling current sources:
V: V(vout_filt) = 1.614 V
I: I(V0:p) = 6.435 uA

~~~~~~~~~~~~~~~~~~~~~~~~~~~~~~~~~
Post-Transient Simulation Summary
~~~~~~~~~~~~~~~~~~~~~~~~~~~~~~~~~
   -   To further speed up simulation, consider
          add ++aps on command line
   -   Non-default settings that could significantly slow down simulation
          errpreset = conservative, default moderate
          reltol = 10e-06, default 100e-06 (conservative)
~~~~~~~~~~~~~~~~~~~~~~~~~~~~~~~~~


During simulation, the CPU load for active processors is :
         0 (10.2 %)      1 (1.9 %)       2 (25.5 %)      3 (30.6 %)
         4 (11.2 %)      5 (1.9 %)       6 (1.3 %)       7 (3.8 %)
         8 (70.6 %)      9 (34.2 %)     10 (47.8 %)     11 (17.5 %)
        12 (65.0 %)     13 (4.4 %)      14 (6.3 %)      15 (100.0 %)
        16 (8.2 %)      17 (1.9 %)      18 (54.7 %)     19 (8.9 %)
        20 (1.9 %)      21 (79.5 %)     22 (97.5 %)     23 (51.2 %)
        24 (6.2 %)      25 (53.4 %)     26 (2.5 %)      27 (2.5 %)
        28 (30.6 %)     29 (2.5 %)      30 (1.2 %)      31 (100.0 %)
        32 (25.3 %)     33 (2.5 %)      34 (3.1 %)      35 (53.4 %)
        36 (38.0 %)     37 (10.0 %)     38 (5.0 %)      39 (100.0 %)
        40 (56.2 %)     41 (19.8 %)     42 (6.3 %)      43 (6.9 %)
        44 (12.7 %)     45 (6.3 %)      46 (6.8 %)      47 (1.3 %)
        Total: 1288.5%
Initial condition solution time: CPU = 1.191 ms, elapsed = 1.19305 ms.
Intrinsic tran analysis time:    CPU = 520.778 ms, elapsed = 528.232 ms.
Total time required for tran analysis `tran': CPU = 524.358 ms, elapsed = 532.524 ms, util. = 98.5%.
Time accumulated: CPU = 1.10866 s, elapsed = 1.68965 s.
Peak resident memory used = 210 Mbytes.


Notice from spectre during transient analysis `tran', during Monte Carlo analysis `mc1'.
    34 warnings suppressed.

finalTimeOP: writing operating point information to rawfile.

Opening the PSF file ../psf/nom/finalTimeOP.info ...
modelParameter: writing model parameter values to rawfile.

Opening the PSF file ../psf/nom/modelParameter.info ...
element: writing instance parameter values to rawfile.

Opening the PSF file ../psf/nom/element.info ...
outputParameter: writing output parameter values to rawfile.

Opening the PSF file ../psf/nom/outputParameter.info ...
designParamVals: writing netlist parameters to rawfile.

Opening the PSFASCII file ../psf/nom/designParamVals.info ...
primitives: writing primitives to rawfile.

Opening the PSFASCII file ../psf/nom/primitives.info.primitives ...
subckts: writing subcircuits to rawfile.

Opening the PSFASCII file ../psf/nom/subckts.info.subckts ...
Opening iteration number and data-directory mapping file:  /home/davidevi/Desktop/myproject/Sim/VGA/VGA_1_tb/adexl/results/data/MonteCarlo.3/7/Linerity_MC/groupRunDataDir/netlist/../psf/mc1.mapping

Statistical parameters:
    Defined process parameters: 629
    Defined mismatch parameters (subckt based): 86
    Non-referenced mismatch parameters: 80
    Number of random variables: 718
    Gaussian truncation for process parameters: 4.00 sigma
    Gaussian truncation for mismatch parameters: 4.00 sigma


Opening the PSF file ../psf/mc1_dcOp.montecarlo ...

Opening the PSF file ../psf/mc1_dcOpInfo.montecarlo ...

Opening the PSF file ../psf/mc1_tran.montecarlo ...

Opening the PSF file ../psf/mc1_finalTimeOP.montecarlo ...

Opening the PSF file ../psf/mc1_modelParameter.montecarlo ...

Opening the PSF file ../psf/mc1_element.montecarlo ...

Opening the PSF file ../psf/mc1_outputParameter.montecarlo ...

Opening the PSF file ../psf/mc1_designParamVals.montecarlo ...

Opening the PSF file ../psf/mc1_primitives.montecarlo ...

Opening the PSF file ../psf/mc1_subckts.montecarlo ...

**** Performing monte carlo loop for `mc1'

1   0.00% 

*****************************************************************************************
* 
* INFO: AMS_processOption = C35B4C3
* 
* INFO: Valid Modules  PIP VG5 HIRES
* 
*****************************************************************************************


******************
DC Analysis `dcOp'
******************

Opening the PSF file ../psf/mc1_separate/001/dcOp.dc ...
Important parameter values:
    reltol = 100e-06
    abstol(V) = 1 uV
    abstol(I) = 1 pA
    temp = 85 C
    tnom = 27 C
    tempeffects = all
    gmindc = 1 pS
    rabsshort = 1 mOhm

Notice from spectre at iteration = 1 during DC analysis `dcOp', during Monte Carlo analysis `mc1'.
    Bad pivoting is found during DC analysis. Option dc_pivot_check=yes is recommended for possible improvement of convergence.


Maximum value achieved for any signal of each quantity: 
V: V(S<0>) = 3.3 V
I: I(V0:p) = 6.224 uA
Maximum value of each quantity, excluding Verilog-A modules or dangling current sources:
V: V(vout_filt) = 1.6 V
I: I(V0:p) = 6.224 uA

Warning from spectre at iteration = 1 during check, during DC analysis `dcOp', during Monte Carlo analysis `mc1'.
    WARNING (CMI-2943): Parameter checks have been ignored because the valid value for parameter 'trise' could not be found in 'C1'.
    WARNING (CMI-2943): Parameter checks have been ignored because the valid value for parameter 'trise' could not be found in 'I0.R2.CM'.
    WARNING (CMI-2943): Parameter checks have been ignored because the valid value for parameter 'trise' could not be found in 'I0.R2.CS1'.
    WARNING (CMI-2943): Parameter checks have been ignored because the valid value for parameter 'trise' could not be found in 'I0.R2.CS0'.
    WARNING (CMI-2943): Parameter checks have been ignored because the valid value for parameter 'trise' could not be found in 'I0.C8<3>.C1'.
        Further occurrences of this warning will be suppressed.

Convergence achieved in 19 iterations.
DC simulation time: CPU = 5.981 ms, elapsed = 7.28893 ms.
Total time required for dc analysis `dcOp': CPU = 6.49 ms, elapsed = 7.79796 ms, util. = 83.2%.
Time accumulated: CPU = 1.19695 s, elapsed = 1.79838 s.
Peak resident memory used = 212 Mbytes.


Notice from spectre at iteration = 1 during Monte Carlo analysis `mc1'.
    34 warnings suppressed.

dcOpInfo: writing operating point information to rawfile.

Opening the PSF file ../psf/mc1_separate/001/dcOpInfo.info ...

************************************************
Transient Analysis `tran': time = (0 s -> 40 ms)
************************************************

Opening the PSF file ../psf/mc1_separate/001/tran.tran.tran ...

Notice from spectre at iteration = 1 during IC analysis, during transient analysis `tran', during Monte Carlo analysis `mc1'.
    Bad pivoting is found during DC analysis. Option dc_pivot_check=yes is recommended for possible improvement of convergence.
Warning from spectre at iteration = 1 during check, during IC analysis, during transient analysis `tran', during Monte Carlo analysis `mc1'.
    WARNING (CMI-2943): Parameter checks have been ignored because the valid value for parameter 'trise' could not be found in 'C1'.
    WARNING (CMI-2943): Parameter checks have been ignored because the valid value for parameter 'trise' could not be found in 'I0.R2.CM'.
    WARNING (CMI-2943): Parameter checks have been ignored because the valid value for parameter 'trise' could not be found in 'I0.R2.CS1'.
    WARNING (CMI-2943): Parameter checks have been ignored because the valid value for parameter 'trise' could not be found in 'I0.R2.CS0'.
    WARNING (CMI-2943): Parameter checks have been ignored because the valid value for parameter 'trise' could not be found in 'I0.C8<3>.C1'.
        Further occurrences of this warning will be suppressed.

Convergence achieved in 19 iterations.
DC simulation time: CPU = 2.914 ms, elapsed = 2.91395 ms.
Important parameter values:
    start = 0 s
    outputstart = 0 s
    stop = 40 ms
    step = 40 us
    maxstep = 400 us
    ic = all
    useprevic = no
    skipdc = no
    reltol = 10e-06
    abstol(V) = 1 uV
    abstol(I) = 1 pA
    temp = 85 C
    tnom = 27 C
    tempeffects = all
    errpreset = conservative
    method = gear2only
    lteratio = 10
    relref = alllocal
    cmin = 0 F
    gmin = 1 pS
    rabsshort = 1 mOhm


Notice from spectre at iteration = 1 during transient analysis `tran', during Monte Carlo analysis `mc1'.
    Multithreading is disabled due to the size of the design being too small.


Output and IC/nodeset summary:
                 save   8       (current)
                 save   87      (voltage)

    tran: time = 1.02 ms     (2.55 %), step = 48.45 us     (121 m%)
    tran: time = 3.034 ms    (7.58 %), step = 47.4 us      (119 m%)
    tran: time = 5.001 ms    (12.5 %), step = 50 us        (125 m%)
    tran: time = 7.014 ms    (17.5 %), step = 48.97 us     (122 m%)
    tran: time = 9.028 ms    (22.6 %), step = 47.82 us     (120 m%)
    tran: time = 11.04 ms    (27.6 %), step = 46.92 us     (117 m%)
    tran: time = 13.01 ms    (32.5 %), step = 49.52 us     (124 m%)
    tran: time = 15.02 ms    (37.6 %), step = 48.29 us     (121 m%)
    tran: time = 17.04 ms    (42.6 %), step = 47.28 us     (118 m%)
    tran: time = 19 ms       (47.5 %), step = 50 us        (125 m%)
    tran: time = 21.02 ms    (52.5 %), step = 48.8 us      (122 m%)
    tran: time = 23.03 ms    (57.6 %), step = 47.68 us     (119 m%)
    tran: time = 25.04 ms    (62.6 %), step = 46.82 us     (117 m%)
    tran: time = 27.01 ms    (67.5 %), step = 49.34 us     (123 m%)
    tran: time = 29.02 ms    (72.6 %), step = 48.15 us     (120 m%)
    tran: time = 31.04 ms    (77.6 %), step = 47.17 us     (118 m%)
    tran: time = 33 ms       (82.5 %), step = 49.95 us     (125 m%)
    tran: time = 35.02 ms    (87.5 %), step = 48.64 us     (122 m%)
    tran: time = 37.03 ms    (92.6 %), step = 47.55 us     (119 m%)
    tran: time = 39.05 ms    (97.6 %), step = 46.72 us     (117 m%)
Number of accepted tran steps =             851

Maximum value achieved for any signal of each quantity: 
V: V(S<0>) = 3.3 V
I: I(V0:p) = 6.224 uA
Maximum value of each quantity, excluding Verilog-A modules or dangling current sources:
V: V(vout_filt) = 1.614 V
I: I(V0:p) = 6.224 uA

~~~~~~~~~~~~~~~~~~~~~~~~~~~~~~~~~
Post-Transient Simulation Summary
~~~~~~~~~~~~~~~~~~~~~~~~~~~~~~~~~
   -   To further speed up simulation, consider
          add ++aps on command line
   -   Non-default settings that could significantly slow down simulation
          errpreset = conservative, default moderate
          reltol = 10e-06, default 100e-06 (conservative)
~~~~~~~~~~~~~~~~~~~~~~~~~~~~~~~~~


During simulation, the CPU load for active processors is :
         0 (12.3 %)      1 (2.7 %)       2 (19.1 %)      3 (49.8 %)
         4 (8.9 %)       5 (2.3 %)       6 (1.4 %)       7 (2.7 %)
         8 (51.3 %)      9 (25.7 %)     10 (62.8 %)     11 (18.4 %)
        12 (47.3 %)     13 (3.6 %)      14 (5.4 %)      15 (100.0 %)
        16 (7.2 %)      17 (4.5 %)      18 (39.5 %)     19 (34.5 %)
        20 (1.8 %)      21 (85.4 %)     22 (97.3 %)     23 (37.6 %)
        24 (32.9 %)     25 (38.4 %)     26 (1.8 %)      27 (2.7 %)
        28 (22.0 %)     29 (1.8 %)      30 (1.8 %)      31 (100.0 %)
        32 (18.6 %)     33 (2.2 %)      34 (24.2 %)     35 (44.9 %)
        36 (28.8 %)     37 (7.7 %)      38 (4.5 %)      39 (100.0 %)
        40 (67.1 %)     41 (19.5 %)     42 (5.9 %)      43 (5.5 %)
        44 (10.0 %)     45 (5.9 %)      46 (5.8 %)      47 (1.8 %)
        Total: 1275.0%
Initial condition solution time: CPU = 2.946 ms, elapsed = 2.94805 ms.
Intrinsic tran analysis time:    CPU = 515.886 ms, elapsed = 517.717 ms.
Total time required for tran analysis `tran': CPU = 520.65 ms, elapsed = 523.141 ms, util. = 99.5%.
Time accumulated: CPU = 1.72486 s, elapsed = 2.33164 s.
Peak resident memory used = 213 Mbytes.


Notice from spectre during transient analysis `tran', during Monte Carlo analysis `mc1'.
    34 warnings suppressed.

finalTimeOP: writing operating point information to rawfile.

Opening the PSF file ../psf/mc1_separate/001/finalTimeOP.info ...
modelParameter: writing model parameter values to rawfile.

Opening the PSF file ../psf/mc1_separate/001/modelParameter.info ...
element: writing instance parameter values to rawfile.

Opening the PSF file ../psf/mc1_separate/001/element.info ...
outputParameter: writing output parameter values to rawfile.

Opening the PSF file ../psf/mc1_separate/001/outputParameter.info ...
designParamVals: writing netlist parameters to rawfile.

Opening the PSFASCII file ../psf/mc1_separate/001/designParamVals.info ...
primitives: writing primitives to rawfile.

Opening the PSFASCII file ../psf/mc1_separate/001/primitives.info.primitives ...
subckts: writing subcircuits to rawfile.

Opening the PSFASCII file ../psf/mc1_separate/001/subckts.info.subckts ...
2   2.04% 

*****************************************************************************************
* 
* INFO: AMS_processOption = C35B4C3
* 
* INFO: Valid Modules  PIP VG5 HIRES
* 
*****************************************************************************************


******************
DC Analysis `dcOp'
******************

Opening the PSF file ../psf/mc1_separate/002/dcOp.dc ...
Important parameter values:
    reltol = 100e-06
    abstol(V) = 1 uV
    abstol(I) = 1 pA
    temp = 85 C
    tnom = 27 C
    tempeffects = all
    gmindc = 1 pS
    rabsshort = 1 mOhm

Notice from spectre during DC analysis `dcOp', during Monte Carlo analysis `mc1'.
    Bad pivoting is found during DC analysis. Option dc_pivot_check=yes is recommended for possible improvement of convergence.


Maximum value achieved for any signal of each quantity: 
V: V(S<0>) = 3.3 V
I: I(V0:p) = 6.457 uA
Maximum value of each quantity, excluding Verilog-A modules or dangling current sources:
V: V(vout_filt) = 1.6 V
I: I(V0:p) = 6.457 uA

Warning from spectre during check, during DC analysis `dcOp', during Monte Carlo analysis `mc1'.
    WARNING (CMI-2943): Parameter checks have been ignored because the valid value for parameter 'trise' could not be found in 'C1'.
    WARNING (CMI-2943): Parameter checks have been ignored because the valid value for parameter 'trise' could not be found in 'I0.R2.CM'.
    WARNING (CMI-2943): Parameter checks have been ignored because the valid value for parameter 'trise' could not be found in 'I0.R2.CS1'.
    WARNING (CMI-2943): Parameter checks have been ignored because the valid value for parameter 'trise' could not be found in 'I0.R2.CS0'.
    WARNING (CMI-2943): Parameter checks have been ignored because the valid value for parameter 'trise' could not be found in 'I0.C8<3>.C1'.
        Further occurrences of this warning will be suppressed.

Convergence achieved in 19 iterations.
DC simulation time: CPU = 6.029 ms, elapsed = 7.93815 ms.
Total time required for dc analysis `dcOp': CPU = 6.633 ms, elapsed = 8.54087 ms, util. = 77.7%.
Time accumulated: CPU = 1.77099 s, elapsed = 2.39172 s.
Peak resident memory used = 213 Mbytes.


Notice from spectre during Monte Carlo analysis `mc1'.
    34 warnings suppressed.

dcOpInfo: writing operating point information to rawfile.

Opening the PSF file ../psf/mc1_separate/002/dcOpInfo.info ...

************************************************
Transient Analysis `tran': time = (0 s -> 40 ms)
************************************************

Opening the PSF file ../psf/mc1_separate/002/tran.tran.tran ...

Notice from spectre during IC analysis, during transient analysis `tran', during Monte Carlo analysis `mc1'.
    Bad pivoting is found during DC analysis. Option dc_pivot_check=yes is recommended for possible improvement of convergence.
Warning from spectre during check, during IC analysis, during transient analysis `tran', during Monte Carlo analysis `mc1'.
    WARNING (CMI-2943): Parameter checks have been ignored because the valid value for parameter 'trise' could not be found in 'C1'.
    WARNING (CMI-2943): Parameter checks have been ignored because the valid value for parameter 'trise' could not be found in 'I0.R2.CM'.
    WARNING (CMI-2943): Parameter checks have been ignored because the valid value for parameter 'trise' could not be found in 'I0.R2.CS1'.
    WARNING (CMI-2943): Parameter checks have been ignored because the valid value for parameter 'trise' could not be found in 'I0.R2.CS0'.
    WARNING (CMI-2943): Parameter checks have been ignored because the valid value for parameter 'trise' could not be found in 'I0.C8<3>.C1'.
        Further occurrences of this warning will be suppressed.

Convergence achieved in 19 iterations.
DC simulation time: CPU = 2.873 ms, elapsed = 2.8739 ms.
Important parameter values:
    start = 0 s
    outputstart = 0 s
    stop = 40 ms
    step = 40 us
    maxstep = 400 us
    ic = all
    useprevic = no
    skipdc = no
    reltol = 10e-06
    abstol(V) = 1 uV
    abstol(I) = 1 pA
    temp = 85 C
    tnom = 27 C
    tempeffects = all
    errpreset = conservative
    method = gear2only
    lteratio = 10
    relref = alllocal
    cmin = 0 F
    gmin = 1 pS
    rabsshort = 1 mOhm


Notice from spectre during transient analysis `tran', during Monte Carlo analysis `mc1'.
    Multithreading is disabled due to the size of the design being too small.


Output and IC/nodeset summary:
                 save   8       (current)
                 save   87      (voltage)

    tran: time = 1.021 ms    (2.55 %), step = 48.36 us     (121 m%)
    tran: time = 3.035 ms    (7.59 %), step = 47.34 us     (118 m%)
    tran: time = 5.002 ms    (12.5 %), step = 50 us        (125 m%)
    tran: time = 7.015 ms    (17.5 %), step = 48.88 us     (122 m%)
    tran: time = 9.029 ms    (22.6 %), step = 47.74 us     (119 m%)
    tran: time = 11.04 ms    (27.6 %), step = 46.86 us     (117 m%)
    tran: time = 13.01 ms    (32.5 %), step = 49.42 us     (124 m%)
    tran: time = 15.02 ms    (37.6 %), step = 48.21 us     (121 m%)
    tran: time = 17.04 ms    (42.6 %), step = 47.22 us     (118 m%)
    tran: time = 19 ms       (47.5 %), step = 50 us        (125 m%)
    tran: time = 21.02 ms    (52.5 %), step = 48.71 us     (122 m%)
    tran: time = 23.03 ms    (57.6 %), step = 47.61 us     (119 m%)
    tran: time = 25.04 ms    (62.6 %), step = 46.76 us     (117 m%)
    tran: time = 27.01 ms    (67.5 %), step = 49.25 us     (123 m%)
    tran: time = 29.02 ms    (72.6 %), step = 48.06 us     (120 m%)
    tran: time = 31.04 ms    (77.6 %), step = 47.11 us     (118 m%)
    tran: time = 33.01 ms    (82.5 %), step = 49.85 us     (125 m%)
    tran: time = 35.02 ms    (87.5 %), step = 48.56 us     (121 m%)
    tran: time = 37.03 ms    (92.6 %), step = 47.49 us     (119 m%)
    tran: time = 39.05 ms    (97.6 %), step = 46.67 us     (117 m%)
Number of accepted tran steps =             851

Maximum value achieved for any signal of each quantity: 
V: V(S<0>) = 3.3 V
I: I(V0:p) = 6.457 uA
Maximum value of each quantity, excluding Verilog-A modules or dangling current sources:
V: V(vout_filt) = 1.614 V
I: I(V0:p) = 6.457 uA

~~~~~~~~~~~~~~~~~~~~~~~~~~~~~~~~~
Post-Transient Simulation Summary
~~~~~~~~~~~~~~~~~~~~~~~~~~~~~~~~~
   -   To further speed up simulation, consider
          add ++aps on command line
   -   Non-default settings that could significantly slow down simulation
          errpreset = conservative, default moderate
          reltol = 10e-06, default 100e-06 (conservative)
~~~~~~~~~~~~~~~~~~~~~~~~~~~~~~~~~


During simulation, the CPU load for active processors is :
         0 (10.1 %)      1 (2.5 %)       2 (16.3 %)      3 (59.2 %)
         4 (8.4 %)       5 (3.2 %)       6 (2.2 %)       7 (2.8 %)
         8 (42.7 %)      9 (21.4 %)     10 (70.5 %)     11 (19.1 %)
        12 (38.2 %)     13 (5.3 %)      14 (4.6 %)      15 (100.0 %)
        16 (6.4 %)      17 (4.3 %)      18 (31.6 %)     19 (48.2 %)
        20 (3.9 %)      21 (88.4 %)     22 (95.1 %)     23 (31.6 %)
        24 (45.8 %)     25 (31.9 %)     26 (2.1 %)      27 (2.5 %)
        28 (18.0 %)     29 (2.1 %)      30 (2.5 %)      31 (100.0 %)
        32 (19.6 %)     33 (2.8 %)      34 (39.6 %)     35 (36.1 %)
        36 (27.8 %)     37 (7.1 %)      38 (4.3 %)      39 (100.0 %)
        40 (73.3 %)     41 (21.4 %)     42 (6.5 %)      43 (6.5 %)
        44 (8.6 %)      45 (5.0 %)      46 (5.7 %)      47 (2.9 %)
        Total: 1288.2%
Initial condition solution time: CPU = 2.907 ms, elapsed = 2.90895 ms.
Intrinsic tran analysis time:    CPU = 521.969 ms, elapsed = 523.7 ms.
Total time required for tran analysis `tran': CPU = 526.774 ms, elapsed = 529.069 ms, util. = 99.6%.
Time accumulated: CPU = 2.30506 s, elapsed = 2.93088 s.
Peak resident memory used = 214 Mbytes.


Notice from spectre during transient analysis `tran', during Monte Carlo analysis `mc1'.
    34 warnings suppressed.

finalTimeOP: writing operating point information to rawfile.

Opening the PSF file ../psf/mc1_separate/002/finalTimeOP.info ...
modelParameter: writing model parameter values to rawfile.

Opening the PSF file ../psf/mc1_separate/002/modelParameter.info ...
element: writing instance parameter values to rawfile.

Opening the PSF file ../psf/mc1_separate/002/element.info ...
outputParameter: writing output parameter values to rawfile.

Opening the PSF file ../psf/mc1_separate/002/outputParameter.info ...
designParamVals: writing netlist parameters to rawfile.

Opening the PSFASCII file ../psf/mc1_separate/002/designParamVals.info ...
primitives: writing primitives to rawfile.

Opening the PSFASCII file ../psf/mc1_separate/002/primitives.info.primitives ...
subckts: writing subcircuits to rawfile.

Opening the PSFASCII file ../psf/mc1_separate/002/subckts.info.subckts ...
3   4.08% 

*****************************************************************************************
* 
* INFO: AMS_processOption = C35B4C3
* 
* INFO: Valid Modules  PIP VG5 HIRES
* 
*****************************************************************************************


******************
DC Analysis `dcOp'
******************

Opening the PSF file ../psf/mc1_separate/003/dcOp.dc ...
Important parameter values:
    reltol = 100e-06
    abstol(V) = 1 uV
    abstol(I) = 1 pA
    temp = 85 C
    tnom = 27 C
    tempeffects = all
    gmindc = 1 pS
    rabsshort = 1 mOhm

Notice from spectre during DC analysis `dcOp', during Monte Carlo analysis `mc1'.
    Bad pivoting is found during DC analysis. Option dc_pivot_check=yes is recommended for possible improvement of convergence.


Maximum value achieved for any signal of each quantity: 
V: V(S<0>) = 3.3 V
I: I(V0:p) = 6.363 uA
Maximum value of each quantity, excluding Verilog-A modules or dangling current sources:
V: V(vout_filt) = 1.6 V
I: I(V0:p) = 6.363 uA

Warning from spectre during check, during DC analysis `dcOp', during Monte Carlo analysis `mc1'.
    WARNING (CMI-2943): Parameter checks have been ignored because the valid value for parameter 'trise' could not be found in 'C1'.
    WARNING (CMI-2943): Parameter checks have been ignored because the valid value for parameter 'trise' could not be found in 'I0.R2.CM'.
    WARNING (CMI-2943): Parameter checks have been ignored because the valid value for parameter 'trise' could not be found in 'I0.R2.CS1'.
    WARNING (CMI-2943): Parameter checks have been ignored because the valid value for parameter 'trise' could not be found in 'I0.R2.CS0'.
    WARNING (CMI-2943): Parameter checks have been ignored because the valid value for parameter 'trise' could not be found in 'I0.C8<3>.C1'.
        Further occurrences of this warning will be suppressed.

Convergence achieved in 19 iterations.
DC simulation time: CPU = 5.629 ms, elapsed = 6.97303 ms.
Total time required for dc analysis `dcOp': CPU = 6.047 ms, elapsed = 7.39098 ms, util. = 81.8%.
Time accumulated: CPU = 2.3491 s, elapsed = 2.98779 s.
Peak resident memory used = 214 Mbytes.


Notice from spectre during Monte Carlo analysis `mc1'.
    34 warnings suppressed.

dcOpInfo: writing operating point information to rawfile.

Opening the PSF file ../psf/mc1_separate/003/dcOpInfo.info ...

************************************************
Transient Analysis `tran': time = (0 s -> 40 ms)
************************************************

Opening the PSF file ../psf/mc1_separate/003/tran.tran.tran ...

Notice from spectre during IC analysis, during transient analysis `tran', during Monte Carlo analysis `mc1'.
    Bad pivoting is found during DC analysis. Option dc_pivot_check=yes is recommended for possible improvement of convergence.
Warning from spectre during check, during IC analysis, during transient analysis `tran', during Monte Carlo analysis `mc1'.
    WARNING (CMI-2943): Parameter checks have been ignored because the valid value for parameter 'trise' could not be found in 'C1'.
    WARNING (CMI-2943): Parameter checks have been ignored because the valid value for parameter 'trise' could not be found in 'I0.R2.CM'.
    WARNING (CMI-2943): Parameter checks have been ignored because the valid value for parameter 'trise' could not be found in 'I0.R2.CS1'.
    WARNING (CMI-2943): Parameter checks have been ignored because the valid value for parameter 'trise' could not be found in 'I0.R2.CS0'.
    WARNING (CMI-2943): Parameter checks have been ignored because the valid value for parameter 'trise' could not be found in 'I0.C8<3>.C1'.
        Further occurrences of this warning will be suppressed.

Convergence achieved in 19 iterations.
DC simulation time: CPU = 2.945 ms, elapsed = 2.95591 ms.
Important parameter values:
    start = 0 s
    outputstart = 0 s
    stop = 40 ms
    step = 40 us
    maxstep = 400 us
    ic = all
    useprevic = no
    skipdc = no
    reltol = 10e-06
    abstol(V) = 1 uV
    abstol(I) = 1 pA
    temp = 85 C
    tnom = 27 C
    tempeffects = all
    errpreset = conservative
    method = gear2only
    lteratio = 10
    relref = alllocal
    cmin = 0 F
    gmin = 1 pS
    rabsshort = 1 mOhm


Notice from spectre during transient analysis `tran', during Monte Carlo analysis `mc1'.
    Multithreading is disabled due to the size of the design being too small.


Output and IC/nodeset summary:
                 save   8       (current)
                 save   87      (voltage)

    tran: time = 1.02 ms     (2.55 %), step = 48.39 us     (121 m%)
    tran: time = 3.034 ms    (7.59 %), step = 47.36 us     (118 m%)
    tran: time = 5.001 ms    (12.5 %), step = 50 us        (125 m%)
    tran: time = 7.014 ms    (17.5 %), step = 48.92 us     (122 m%)
    tran: time = 9.028 ms    (22.6 %), step = 47.79 us     (119 m%)
    tran: time = 11.04 ms    (27.6 %), step = 46.9 us      (117 m%)
    tran: time = 13.01 ms    (32.5 %), step = 49.5 us      (124 m%)
    tran: time = 15.02 ms    (37.6 %), step = 48.28 us     (121 m%)
    tran: time = 17.04 ms    (42.6 %), step = 47.28 us     (118 m%)
    tran: time = 19 ms       (47.5 %), step = 50 us        (125 m%)
    tran: time = 21.02 ms    (52.5 %), step = 48.82 us     (122 m%)
    tran: time = 23.03 ms    (57.6 %), step = 47.7 us      (119 m%)
    tran: time = 25.04 ms    (62.6 %), step = 46.83 us     (117 m%)
    tran: time = 27.01 ms    (67.5 %), step = 49.39 us     (123 m%)
    tran: time = 29.02 ms    (72.6 %), step = 48.19 us     (120 m%)
    tran: time = 31.04 ms    (77.6 %), step = 47.2 us      (118 m%)
    tran: time = 33 ms       (82.5 %), step = 50 us        (125 m%)
    tran: time = 35.02 ms    (87.5 %), step = 48.71 us     (122 m%)
    tran: time = 37.03 ms    (92.6 %), step = 47.61 us     (119 m%)
    tran: time = 39.04 ms    (97.6 %), step = 46.77 us     (117 m%)
Number of accepted tran steps =             851

Maximum value achieved for any signal of each quantity: 
V: V(S<0>) = 3.3 V
I: I(V0:p) = 6.363 uA
Maximum value of each quantity, excluding Verilog-A modules or dangling current sources:
V: V(vout_filt) = 1.614 V
I: I(V0:p) = 6.363 uA

~~~~~~~~~~~~~~~~~~~~~~~~~~~~~~~~~
Post-Transient Simulation Summary
~~~~~~~~~~~~~~~~~~~~~~~~~~~~~~~~~
   -   To further speed up simulation, consider
          add ++aps on command line
   -   Non-default settings that could significantly slow down simulation
          errpreset = conservative, default moderate
          reltol = 10e-06, default 100e-06 (conservative)
~~~~~~~~~~~~~~~~~~~~~~~~~~~~~~~~~


During simulation, the CPU load for active processors is :
         0 (24.6 %)      1 (2.7 %)       2 (14.3 %)      3 (52.0 %)
         4 (7.3 %)       5 (2.9 %)       6 (2.4 %)       7 (2.6 %)
         8 (36.3 %)      9 (18.3 %)     10 (75.7 %)     11 (19.6 %)
        12 (32.0 %)     13 (4.7 %)      14 (4.1 %)      15 (100.0 %)
        16 (7.0 %)      17 (13.5 %)     18 (26.3 %)     19 (56.6 %)
        20 (3.5 %)      21 (90.4 %)     22 (95.9 %)     23 (26.5 %)
        24 (54.9 %)     25 (26.5 %)     26 (2.0 %)      27 (2.0 %)
        28 (15.5 %)     29 (1.8 %)      30 (2.1 %)      31 (100.0 %)
        32 (33.4 %)     33 (2.6 %)      34 (34.3 %)     35 (45.2 %)
        36 (40.4 %)     37 (6.5 %)      38 (4.4 %)      39 (100.0 %)
        40 (77.4 %)     41 (19.0 %)     42 (8.9 %)      43 (6.5 %)
        44 (8.3 %)      45 (4.4 %)      46 (5.3 %)      47 (3.3 %)
        Total: 1323.9%
Initial condition solution time: CPU = 2.995 ms, elapsed = 3.00479 ms.
Intrinsic tran analysis time:    CPU = 520.584 ms, elapsed = 522.288 ms.
Total time required for tran analysis `tran': CPU = 525.42 ms, elapsed = 528.173 ms, util. = 99.5%.
Time accumulated: CPU = 2.88162 s, elapsed = 3.52559 s.
Peak resident memory used = 214 Mbytes.


Notice from spectre during transient analysis `tran', during Monte Carlo analysis `mc1'.
    34 warnings suppressed.

finalTimeOP: writing operating point information to rawfile.

Opening the PSF file ../psf/mc1_separate/003/finalTimeOP.info ...
modelParameter: writing model parameter values to rawfile.

Opening the PSF file ../psf/mc1_separate/003/modelParameter.info ...
element: writing instance parameter values to rawfile.

Opening the PSF file ../psf/mc1_separate/003/element.info ...
outputParameter: writing output parameter values to rawfile.

Opening the PSF file ../psf/mc1_separate/003/outputParameter.info ...
designParamVals: writing netlist parameters to rawfile.

Opening the PSFASCII file ../psf/mc1_separate/003/designParamVals.info ...
primitives: writing primitives to rawfile.

Opening the PSFASCII file ../psf/mc1_separate/003/primitives.info.primitives ...
subckts: writing subcircuits to rawfile.

Opening the PSFASCII file ../psf/mc1_separate/003/subckts.info.subckts ...
    mc1: iteration = 3           (4.08 %), step = 1            (2.04 %)
4   6.12% 

*****************************************************************************************
* 
* INFO: AMS_processOption = C35B4C3
* 
* INFO: Valid Modules  PIP VG5 HIRES
* 
*****************************************************************************************


******************
DC Analysis `dcOp'
******************

Opening the PSF file ../psf/mc1_separate/004/dcOp.dc ...
Important parameter values:
    reltol = 100e-06
    abstol(V) = 1 uV
    abstol(I) = 1 pA
    temp = 85 C
    tnom = 27 C
    tempeffects = all
    gmindc = 1 pS
    rabsshort = 1 mOhm

Notice from spectre during DC analysis `dcOp', during Monte Carlo analysis `mc1'.
    Bad pivoting is found during DC analysis. Option dc_pivot_check=yes is recommended for possible improvement of convergence.


Maximum value achieved for any signal of each quantity: 
V: V(S<0>) = 3.3 V
I: I(V0:p) = 6.493 uA
Maximum value of each quantity, excluding Verilog-A modules or dangling current sources:
V: V(net1) = 1.6 V
I: I(V0:p) = 6.493 uA

Warning from spectre during check, during DC analysis `dcOp', during Monte Carlo analysis `mc1'.
    WARNING (CMI-2943): Parameter checks have been ignored because the valid value for parameter 'trise' could not be found in 'C1'.
    WARNING (CMI-2943): Parameter checks have been ignored because the valid value for parameter 'trise' could not be found in 'I0.R2.CM'.
    WARNING (CMI-2943): Parameter checks have been ignored because the valid value for parameter 'trise' could not be found in 'I0.R2.CS1'.
    WARNING (CMI-2943): Parameter checks have been ignored because the valid value for parameter 'trise' could not be found in 'I0.R2.CS0'.
    WARNING (CMI-2943): Parameter checks have been ignored because the valid value for parameter 'trise' could not be found in 'I0.C8<3>.C1'.
        Further occurrences of this warning will be suppressed.

Convergence achieved in 19 iterations.
DC simulation time: CPU = 5.841 ms, elapsed = 7.10392 ms.
Total time required for dc analysis `dcOp': CPU = 6.397 ms, elapsed = 7.66611 ms, util. = 83.4%.
Time accumulated: CPU = 2.9273 s, elapsed = 3.58279 s.
Peak resident memory used = 214 Mbytes.


Notice from spectre during Monte Carlo analysis `mc1'.
    34 warnings suppressed.

dcOpInfo: writing operating point information to rawfile.

Opening the PSF file ../psf/mc1_separate/004/dcOpInfo.info ...

************************************************
Transient Analysis `tran': time = (0 s -> 40 ms)
************************************************

Opening the PSF file ../psf/mc1_separate/004/tran.tran.tran ...

Notice from spectre during IC analysis, during transient analysis `tran', during Monte Carlo analysis `mc1'.
    Bad pivoting is found during DC analysis. Option dc_pivot_check=yes is recommended for possible improvement of convergence.
Warning from spectre during check, during IC analysis, during transient analysis `tran', during Monte Carlo analysis `mc1'.
    WARNING (CMI-2943): Parameter checks have been ignored because the valid value for parameter 'trise' could not be found in 'C1'.
    WARNING (CMI-2943): Parameter checks have been ignored because the valid value for parameter 'trise' could not be found in 'I0.R2.CM'.
    WARNING (CMI-2943): Parameter checks have been ignored because the valid value for parameter 'trise' could not be found in 'I0.R2.CS1'.
    WARNING (CMI-2943): Parameter checks have been ignored because the valid value for parameter 'trise' could not be found in 'I0.R2.CS0'.
    WARNING (CMI-2943): Parameter checks have been ignored because the valid value for parameter 'trise' could not be found in 'I0.C8<3>.C1'.
        Further occurrences of this warning will be suppressed.

Convergence achieved in 19 iterations.
DC simulation time: CPU = 2.862 ms, elapsed = 2.86293 ms.
Important parameter values:
    start = 0 s
    outputstart = 0 s
    stop = 40 ms
    step = 40 us
    maxstep = 400 us
    ic = all
    useprevic = no
    skipdc = no
    reltol = 10e-06
    abstol(V) = 1 uV
    abstol(I) = 1 pA
    temp = 85 C
    tnom = 27 C
    tempeffects = all
    errpreset = conservative
    method = gear2only
    lteratio = 10
    relref = alllocal
    cmin = 0 F
    gmin = 1 pS
    rabsshort = 1 mOhm


Notice from spectre during transient analysis `tran', during Monte Carlo analysis `mc1'.
    Multithreading is disabled due to the size of the design being too small.


Output and IC/nodeset summary:
                 save   8       (current)
                 save   87      (voltage)

    tran: time = 1.021 ms    (2.55 %), step = 48.35 us     (121 m%)
    tran: time = 3.034 ms    (7.59 %), step = 47.35 us     (118 m%)
    tran: time = 5.001 ms    (12.5 %), step = 50 us        (125 m%)
    tran: time = 7.014 ms    (17.5 %), step = 48.96 us     (122 m%)
    tran: time = 9.027 ms    (22.6 %), step = 47.84 us     (120 m%)
    tran: time = 11.04 ms    (27.6 %), step = 46.95 us     (117 m%)
    tran: time = 13.01 ms    (32.5 %), step = 49.62 us     (124 m%)
    tran: time = 15.02 ms    (37.6 %), step = 48.4 us      (121 m%)
    tran: time = 17.03 ms    (42.6 %), step = 47.39 us     (118 m%)
    tran: time = 19 ms       (47.5 %), step = 50 us        (125 m%)
    tran: time = 21.01 ms    (52.5 %), step = 49.01 us     (123 m%)
    tran: time = 23.03 ms    (57.6 %), step = 47.89 us     (120 m%)
    tran: time = 25.04 ms    (62.6 %), step = 46.99 us     (117 m%)
    tran: time = 27.01 ms    (67.5 %), step = 49.69 us     (124 m%)
    tran: time = 29.02 ms    (72.5 %), step = 48.46 us     (121 m%)
    tran: time = 31.03 ms    (77.6 %), step = 47.43 us     (119 m%)
    tran: time = 33.05 ms    (82.6 %), step = 46.63 us     (117 m%)
    tran: time = 35.01 ms    (87.5 %), step = 49.08 us     (123 m%)
    tran: time = 37.03 ms    (92.6 %), step = 47.94 us     (120 m%)
    tran: time = 39.04 ms    (97.6 %), step = 47.04 us     (118 m%)
Number of accepted tran steps =             852

Maximum value achieved for any signal of each quantity: 
V: V(S<0>) = 3.3 V
I: I(V0:p) = 6.493 uA
Maximum value of each quantity, excluding Verilog-A modules or dangling current sources:
V: V(vout_filt) = 1.612 V
I: I(V0:p) = 6.493 uA

~~~~~~~~~~~~~~~~~~~~~~~~~~~~~~~~~
Post-Transient Simulation Summary
~~~~~~~~~~~~~~~~~~~~~~~~~~~~~~~~~
   -   To further speed up simulation, consider
          add ++aps on command line
   -   Non-default settings that could significantly slow down simulation
          errpreset = conservative, default moderate
          reltol = 10e-06, default 100e-06 (conservative)
~~~~~~~~~~~~~~~~~~~~~~~~~~~~~~~~~


During simulation, the CPU load for active processors is :
         0 (35.4 %)      1 (3.3 %)       2 (13.0 %)      3 (45.0 %)
         4 (8.7 %)       5 (2.8 %)       6 (2.3 %)       7 (2.5 %)
         8 (31.5 %)      9 (15.9 %)     10 (79.3 %)     11 (20.0 %)
        12 (27.6 %)     13 (14.3 %)     14 (4.8 %)      15 (100.0 %)
        16 (6.3 %)      17 (12.0 %)     18 (22.8 %)     19 (62.5 %)
        20 (4.0 %)      21 (91.9 %)     22 (87.1 %)     23 (23.0 %)
        24 (60.8 %)     25 (22.9 %)     26 (2.0 %)      27 (2.0 %)
        28 (13.2 %)     29 (1.7 %)      30 (2.2 %)      31 (100.0 %)
        32 (33.3 %)     33 (11.4 %)     34 (29.8 %)     35 (52.8 %)
        36 (48.4 %)     37 (16.0 %)     38 (4.5 %)      39 (100.0 %)
        40 (80.5 %)     41 (16.9 %)     42 (9.0 %)      43 (6.3 %)
        44 (7.4 %)      45 (4.5 %)      46 (5.0 %)      47 (4.0 %)
        Total: 1350.7%
Initial condition solution time: CPU = 2.895 ms, elapsed = 2.89702 ms.
Intrinsic tran analysis time:    CPU = 525.537 ms, elapsed = 527.094 ms.
Total time required for tran analysis `tran': CPU = 530.261 ms, elapsed = 532.331 ms, util. = 99.6%.
Time accumulated: CPU = 3.46486 s, elapsed = 4.12506 s.
Peak resident memory used = 214 Mbytes.


Notice from spectre during transient analysis `tran', during Monte Carlo analysis `mc1'.
    34 warnings suppressed.

finalTimeOP: writing operating point information to rawfile.

Opening the PSF file ../psf/mc1_separate/004/finalTimeOP.info ...
modelParameter: writing model parameter values to rawfile.

Opening the PSF file ../psf/mc1_separate/004/modelParameter.info ...
element: writing instance parameter values to rawfile.

Opening the PSF file ../psf/mc1_separate/004/element.info ...
outputParameter: writing output parameter values to rawfile.

Opening the PSF file ../psf/mc1_separate/004/outputParameter.info ...
designParamVals: writing netlist parameters to rawfile.

Opening the PSFASCII file ../psf/mc1_separate/004/designParamVals.info ...
primitives: writing primitives to rawfile.

Opening the PSFASCII file ../psf/mc1_separate/004/primitives.info.primitives ...
subckts: writing subcircuits to rawfile.

Opening the PSFASCII file ../psf/mc1_separate/004/subckts.info.subckts ...
    mc1: iteration = 4           (6.12 %), step = 1            (2.04 %)
5   8.16% 

*****************************************************************************************
* 
* INFO: AMS_processOption = C35B4C3
* 
* INFO: Valid Modules  PIP VG5 HIRES
* 
*****************************************************************************************


******************
DC Analysis `dcOp'
******************

Opening the PSF file ../psf/mc1_separate/005/dcOp.dc ...
Important parameter values:
    reltol = 100e-06
    abstol(V) = 1 uV
    abstol(I) = 1 pA
    temp = 85 C
    tnom = 27 C
    tempeffects = all
    gmindc = 1 pS
    rabsshort = 1 mOhm

Notice from spectre during DC analysis `dcOp', during Monte Carlo analysis `mc1'.
    Bad pivoting is found during DC analysis. Option dc_pivot_check=yes is recommended for possible improvement of convergence.


Maximum value achieved for any signal of each quantity: 
V: V(S<0>) = 3.3 V
I: I(V0:p) = 6.415 uA
Maximum value of each quantity, excluding Verilog-A modules or dangling current sources:
V: V(vout_filt) = 1.6 V
I: I(V0:p) = 6.415 uA

Warning from spectre during check, during DC analysis `dcOp', during Monte Carlo analysis `mc1'.
    WARNING (CMI-2943): Parameter checks have been ignored because the valid value for parameter 'trise' could not be found in 'C1'.
    WARNING (CMI-2943): Parameter checks have been ignored because the valid value for parameter 'trise' could not be found in 'I0.R2.CM'.
    WARNING (CMI-2943): Parameter checks have been ignored because the valid value for parameter 'trise' could not be found in 'I0.R2.CS1'.
    WARNING (CMI-2943): Parameter checks have been ignored because the valid value for parameter 'trise' could not be found in 'I0.R2.CS0'.
    WARNING (CMI-2943): Parameter checks have been ignored because the valid value for parameter 'trise' could not be found in 'I0.C8<3>.C1'.
        Further occurrences of this warning will be suppressed.

Convergence achieved in 19 iterations.
DC simulation time: CPU = 6.079 ms, elapsed = 7.50804 ms.
Total time required for dc analysis `dcOp': CPU = 6.594 ms, elapsed = 8.02302 ms, util. = 82.2%.
Time accumulated: CPU = 3.51456 s, elapsed = 4.18765 s.
Peak resident memory used = 214 Mbytes.


Notice from spectre during Monte Carlo analysis `mc1'.
    34 warnings suppressed.

dcOpInfo: writing operating point information to rawfile.

Opening the PSF file ../psf/mc1_separate/005/dcOpInfo.info ...

************************************************
Transient Analysis `tran': time = (0 s -> 40 ms)
************************************************

Opening the PSF file ../psf/mc1_separate/005/tran.tran.tran ...

Notice from spectre during IC analysis, during transient analysis `tran', during Monte Carlo analysis `mc1'.
    Bad pivoting is found during DC analysis. Option dc_pivot_check=yes is recommended for possible improvement of convergence.
Warning from spectre during check, during IC analysis, during transient analysis `tran', during Monte Carlo analysis `mc1'.
    WARNING (CMI-2943): Parameter checks have been ignored because the valid value for parameter 'trise' could not be found in 'C1'.
    WARNING (CMI-2943): Parameter checks have been ignored because the valid value for parameter 'trise' could not be found in 'I0.R2.CM'.
    WARNING (CMI-2943): Parameter checks have been ignored because the valid value for parameter 'trise' could not be found in 'I0.R2.CS1'.
    WARNING (CMI-2943): Parameter checks have been ignored because the valid value for parameter 'trise' could not be found in 'I0.R2.CS0'.
    WARNING (CMI-2943): Parameter checks have been ignored because the valid value for parameter 'trise' could not be found in 'I0.C8<3>.C1'.
        Further occurrences of this warning will be suppressed.

Convergence achieved in 19 iterations.
DC simulation time: CPU = 2.963 ms, elapsed = 2.96402 ms.
Important parameter values:
    start = 0 s
    outputstart = 0 s
    stop = 40 ms
    step = 40 us
    maxstep = 400 us
    ic = all
    useprevic = no
    skipdc = no
    reltol = 10e-06
    abstol(V) = 1 uV
    abstol(I) = 1 pA
    temp = 85 C
    tnom = 27 C
    tempeffects = all
    errpreset = conservative
    method = gear2only
    lteratio = 10
    relref = alllocal
    cmin = 0 F
    gmin = 1 pS
    rabsshort = 1 mOhm


Notice from spectre during transient analysis `tran', during Monte Carlo analysis `mc1'.
    Multithreading is disabled due to the size of the design being too small.


Output and IC/nodeset summary:
                 save   8       (current)
                 save   87      (voltage)

    tran: time = 1.021 ms    (2.55 %), step = 48.37 us     (121 m%)
    tran: time = 3.035 ms    (7.59 %), step = 47.34 us     (118 m%)
    tran: time = 5.002 ms    (12.5 %), step = 50 us        (125 m%)
    tran: time = 7.015 ms    (17.5 %), step = 48.86 us     (122 m%)
    tran: time = 9.029 ms    (22.6 %), step = 47.73 us     (119 m%)
    tran: time = 11.04 ms    (27.6 %), step = 46.85 us     (117 m%)
    tran: time = 13.01 ms    (32.5 %), step = 49.39 us     (123 m%)
    tran: time = 15.02 ms    (37.6 %), step = 48.18 us     (120 m%)
    tran: time = 17.04 ms    (42.6 %), step = 47.19 us     (118 m%)
    tran: time = 19 ms       (47.5 %), step = 49.97 us     (125 m%)
    tran: time = 21.02 ms    (52.5 %), step = 48.65 us     (122 m%)
    tran: time = 23.03 ms    (57.6 %), step = 47.56 us     (119 m%)
    tran: time = 25.05 ms    (62.6 %), step = 46.72 us     (117 m%)
    tran: time = 27.01 ms    (67.5 %), step = 49.17 us     (123 m%)
    tran: time = 29.03 ms    (72.6 %), step = 47.99 us     (120 m%)
    tran: time = 31.04 ms    (77.6 %), step = 47.05 us     (118 m%)
    tran: time = 33.01 ms    (82.5 %), step = 49.74 us     (124 m%)
    tran: time = 35.02 ms    (87.5 %), step = 48.46 us     (121 m%)
    tran: time = 37.03 ms    (92.6 %), step = 47.41 us     (119 m%)
    tran: time = 39 ms       (97.5 %), step = 50 us        (125 m%)
Number of accepted tran steps =             851

Maximum value achieved for any signal of each quantity: 
V: V(S<0>) = 3.3 V
I: I(V0:p) = 6.415 uA
Maximum value of each quantity, excluding Verilog-A modules or dangling current sources:
V: V(vout_filt) = 1.614 V
I: I(V0:p) = 6.415 uA

~~~~~~~~~~~~~~~~~~~~~~~~~~~~~~~~~
Post-Transient Simulation Summary
~~~~~~~~~~~~~~~~~~~~~~~~~~~~~~~~~
   -   To further speed up simulation, consider
          add ++aps on command line
   -   Non-default settings that could significantly slow down simulation
          errpreset = conservative, default moderate
          reltol = 10e-06, default 100e-06 (conservative)
~~~~~~~~~~~~~~~~~~~~~~~~~~~~~~~~~


During simulation, the CPU load for active processors is :
         0 (42.5 %)      1 (3.1 %)       2 (12.8 %)      3 (39.7 %)
         4 (10.2 %)      5 (2.9 %)       6 (2.0 %)       7 (2.2 %)
         8 (27.6 %)      9 (14.3 %)     10 (81.9 %)     11 (20.4 %)
        12 (24.7 %)     13 (14.4 %)     14 (4.2 %)      15 (100.0 %)
        16 (15.0 %)     17 (21.5 %)     18 (20.1 %)     19 (56.4 %)
        20 (4.2 %)      21 (92.9 %)     22 (78.2 %)     23 (20.1 %)
        24 (65.9 %)     25 (30.9 %)     26 (2.0 %)      27 (2.2 %)
        28 (11.6 %)     29 (2.0 %)      30 (2.0 %)      31 (100.0 %)
        32 (29.2 %)     33 (22.9 %)     34 (26.0 %)     35 (48.3 %)
        36 (55.1 %)     37 (15.9 %)     38 (4.6 %)      39 (100.0 %)
        40 (82.6 %)     41 (15.0 %)     42 (8.3 %)      43 (5.7 %)
        44 (7.3 %)      45 (5.1 %)      46 (4.8 %)      47 (4.4 %)
        Total: 1362.9%
Initial condition solution time: CPU = 3.008 ms, elapsed = 3.00908 ms.
Intrinsic tran analysis time:    CPU = 519.095 ms, elapsed = 520.586 ms.
Total time required for tran analysis `tran': CPU = 524.137 ms, elapsed = 526.227 ms, util. = 99.6%.
Time accumulated: CPU = 4.04591 s, elapsed = 4.72339 s.
Peak resident memory used = 214 Mbytes.


Notice from spectre during transient analysis `tran', during Monte Carlo analysis `mc1'.
    34 warnings suppressed.

finalTimeOP: writing operating point information to rawfile.

Opening the PSF file ../psf/mc1_separate/005/finalTimeOP.info ...
modelParameter: writing model parameter values to rawfile.

Opening the PSF file ../psf/mc1_separate/005/modelParameter.info ...
element: writing instance parameter values to rawfile.

Opening the PSF file ../psf/mc1_separate/005/element.info ...
outputParameter: writing output parameter values to rawfile.

Opening the PSF file ../psf/mc1_separate/005/outputParameter.info ...
designParamVals: writing netlist parameters to rawfile.

Opening the PSFASCII file ../psf/mc1_separate/005/designParamVals.info ...
primitives: writing primitives to rawfile.

Opening the PSFASCII file ../psf/mc1_separate/005/primitives.info.primitives ...
subckts: writing subcircuits to rawfile.

Opening the PSFASCII file ../psf/mc1_separate/005/subckts.info.subckts ...
    mc1: iteration = 5           (8.16 %), step = 1            (2.04 %)
6  10.20% 

*****************************************************************************************
* 
* INFO: AMS_processOption = C35B4C3
* 
* INFO: Valid Modules  PIP VG5 HIRES
* 
*****************************************************************************************


******************
DC Analysis `dcOp'
******************

Opening the PSF file ../psf/mc1_separate/006/dcOp.dc ...
Important parameter values:
    reltol = 100e-06
    abstol(V) = 1 uV
    abstol(I) = 1 pA
    temp = 85 C
    tnom = 27 C
    tempeffects = all
    gmindc = 1 pS
    rabsshort = 1 mOhm

Notice from spectre during DC analysis `dcOp', during Monte Carlo analysis `mc1'.
    Bad pivoting is found during DC analysis. Option dc_pivot_check=yes is recommended for possible improvement of convergence.


Maximum value achieved for any signal of each quantity: 
V: V(S<0>) = 3.3 V
I: I(V0:p) = 6.437 uA
Maximum value of each quantity, excluding Verilog-A modules or dangling current sources:
V: V(net1) = 1.6 V
I: I(V0:p) = 6.437 uA

Warning from spectre during check, during DC analysis `dcOp', during Monte Carlo analysis `mc1'.
    WARNING (CMI-2943): Parameter checks have been ignored because the valid value for parameter 'trise' could not be found in 'C1'.
    WARNING (CMI-2943): Parameter checks have been ignored because the valid value for parameter 'trise' could not be found in 'I0.R2.CM'.
    WARNING (CMI-2943): Parameter checks have been ignored because the valid value for parameter 'trise' could not be found in 'I0.R2.CS1'.
    WARNING (CMI-2943): Parameter checks have been ignored because the valid value for parameter 'trise' could not be found in 'I0.R2.CS0'.
    WARNING (CMI-2943): Parameter checks have been ignored because the valid value for parameter 'trise' could not be found in 'I0.C8<3>.C1'.
        Further occurrences of this warning will be suppressed.

Convergence achieved in 19 iterations.
DC simulation time: CPU = 5.157 ms, elapsed = 6.34503 ms.
Total time required for dc analysis `dcOp': CPU = 5.602 ms, elapsed = 6.78802 ms, util. = 82.5%.
Time accumulated: CPU = 4.08988 s, elapsed = 4.77907 s.
Peak resident memory used = 214 Mbytes.


Notice from spectre during Monte Carlo analysis `mc1'.
    34 warnings suppressed.

dcOpInfo: writing operating point information to rawfile.

Opening the PSF file ../psf/mc1_separate/006/dcOpInfo.info ...

************************************************
Transient Analysis `tran': time = (0 s -> 40 ms)
************************************************

Opening the PSF file ../psf/mc1_separate/006/tran.tran.tran ...

Notice from spectre during IC analysis, during transient analysis `tran', during Monte Carlo analysis `mc1'.
    Bad pivoting is found during DC analysis. Option dc_pivot_check=yes is recommended for possible improvement of convergence.
Warning from spectre during check, during IC analysis, during transient analysis `tran', during Monte Carlo analysis `mc1'.
    WARNING (CMI-2943): Parameter checks have been ignored because the valid value for parameter 'trise' could not be found in 'C1'.
    WARNING (CMI-2943): Parameter checks have been ignored because the valid value for parameter 'trise' could not be found in 'I0.R2.CM'.
    WARNING (CMI-2943): Parameter checks have been ignored because the valid value for parameter 'trise' could not be found in 'I0.R2.CS1'.
    WARNING (CMI-2943): Parameter checks have been ignored because the valid value for parameter 'trise' could not be found in 'I0.R2.CS0'.
    WARNING (CMI-2943): Parameter checks have been ignored because the valid value for parameter 'trise' could not be found in 'I0.C8<3>.C1'.
        Further occurrences of this warning will be suppressed.

Convergence achieved in 19 iterations.
DC simulation time: CPU = 2.866 ms, elapsed = 2.86698 ms.
Important parameter values:
    start = 0 s
    outputstart = 0 s
    stop = 40 ms
    step = 40 us
    maxstep = 400 us
    ic = all
    useprevic = no
    skipdc = no
    reltol = 10e-06
    abstol(V) = 1 uV
    abstol(I) = 1 pA
    temp = 85 C
    tnom = 27 C
    tempeffects = all
    errpreset = conservative
    method = gear2only
    lteratio = 10
    relref = alllocal
    cmin = 0 F
    gmin = 1 pS
    rabsshort = 1 mOhm


Notice from spectre during transient analysis `tran', during Monte Carlo analysis `mc1'.
    Multithreading is disabled due to the size of the design being too small.


Output and IC/nodeset summary:
                 save   8       (current)
                 save   87      (voltage)

    tran: time = 1.021 ms    (2.55 %), step = 48.32 us     (121 m%)
    tran: time = 3.035 ms    (7.59 %), step = 47.32 us     (118 m%)
    tran: time = 5.002 ms    (12.5 %), step = 50 us        (125 m%)
    tran: time = 7.015 ms    (17.5 %), step = 48.89 us     (122 m%)
    tran: time = 9.028 ms    (22.6 %), step = 47.77 us     (119 m%)
    tran: time = 11.04 ms    (27.6 %), step = 46.89 us     (117 m%)
    tran: time = 13.01 ms    (32.5 %), step = 49.5 us      (124 m%)
    tran: time = 15.02 ms    (37.6 %), step = 48.29 us     (121 m%)
    tran: time = 17.04 ms    (42.6 %), step = 47.29 us     (118 m%)
    tran: time = 19 ms       (47.5 %), step = 50 us        (125 m%)
    tran: time = 21.02 ms    (52.5 %), step = 48.85 us     (122 m%)
    tran: time = 23.03 ms    (57.6 %), step = 47.74 us     (119 m%)
    tran: time = 25.04 ms    (62.6 %), step = 46.87 us     (117 m%)
    tran: time = 27.01 ms    (67.5 %), step = 49.46 us     (124 m%)
    tran: time = 29.02 ms    (72.6 %), step = 48.26 us     (121 m%)
    tran: time = 31.04 ms    (77.6 %), step = 47.27 us     (118 m%)
    tran: time = 33 ms       (82.5 %), step = 50 us        (125 m%)
    tran: time = 35.02 ms    (87.5 %), step = 48.82 us     (122 m%)
    tran: time = 37.03 ms    (92.6 %), step = 47.71 us     (119 m%)
    tran: time = 39.04 ms    (97.6 %), step = 46.85 us     (117 m%)
Number of accepted tran steps =             851

Maximum value achieved for any signal of each quantity: 
V: V(S<0>) = 3.3 V
I: I(V0:p) = 6.437 uA
Maximum value of each quantity, excluding Verilog-A modules or dangling current sources:
V: V(vout_filt) = 1.612 V
I: I(V0:p) = 6.437 uA

~~~~~~~~~~~~~~~~~~~~~~~~~~~~~~~~~
Post-Transient Simulation Summary
~~~~~~~~~~~~~~~~~~~~~~~~~~~~~~~~~
   -   To further speed up simulation, consider
          add ++aps on command line
   -   Non-default settings that could significantly slow down simulation
          errpreset = conservative, default moderate
          reltol = 10e-06, default 100e-06 (conservative)
~~~~~~~~~~~~~~~~~~~~~~~~~~~~~~~~~


During simulation, the CPU load for active processors is :
         0 (40.6 %)      1 (3.1 %)       2 (12.3 %)      3 (44.1 %)
         4 (11.4 %)      5 (3.1 %)       6 (2.7 %)       7 (2.0 %)
         8 (25.1 %)      9 (13.1 %)     10 (83.9 %)     11 (20.3 %)
        12 (31.2 %)     13 (14.7 %)     14 (3.9 %)      15 (100.0 %)
        16 (13.4 %)     17 (19.7 %)     18 (19.1 %)     19 (50.2 %)
        20 (4.1 %)      21 (93.7 %)     22 (69.7 %)     23 (18.1 %)
        24 (69.0 %)     25 (29.3 %)     26 (2.7 %)      27 (2.5 %)
        28 (19.9 %)     29 (2.1 %)      30 (2.1 %)      31 (100.0 %)
        32 (27.3 %)     33 (29.9 %)     34 (23.4 %)     35 (43.3 %)
        36 (57.8 %)     37 (15.0 %)     38 (5.2 %)      39 (100.0 %)
        40 (75.1 %)     41 (13.8 %)     42 (7.6 %)      43 (5.7 %)
        44 (8.3 %)      45 (14.6 %)     46 (4.9 %)      47 (4.1 %)
        Total: 1363.1%
Initial condition solution time: CPU = 2.9 ms, elapsed = 2.90298 ms.
Intrinsic tran analysis time:    CPU = 506.538 ms, elapsed = 508.459 ms.
Total time required for tran analysis `tran': CPU = 511.369 ms, elapsed = 513.968 ms, util. = 99.5%.
Time accumulated: CPU = 4.60821 s, elapsed = 5.30266 s.
Peak resident memory used = 214 Mbytes.


Notice from spectre during transient analysis `tran', during Monte Carlo analysis `mc1'.
    34 warnings suppressed.

finalTimeOP: writing operating point information to rawfile.

Opening the PSF file ../psf/mc1_separate/006/finalTimeOP.info ...
modelParameter: writing model parameter values to rawfile.

Opening the PSF file ../psf/mc1_separate/006/modelParameter.info ...
element: writing instance parameter values to rawfile.

Opening the PSF file ../psf/mc1_separate/006/element.info ...
outputParameter: writing output parameter values to rawfile.

Opening the PSF file ../psf/mc1_separate/006/outputParameter.info ...
designParamVals: writing netlist parameters to rawfile.

Opening the PSFASCII file ../psf/mc1_separate/006/designParamVals.info ...
primitives: writing primitives to rawfile.

Opening the PSFASCII file ../psf/mc1_separate/006/primitives.info.primitives ...
subckts: writing subcircuits to rawfile.

Opening the PSFASCII file ../psf/mc1_separate/006/subckts.info.subckts ...
    mc1: iteration = 6           (10.2 %), step = 1            (2.04 %)
7  12.24% 

*****************************************************************************************
* 
* INFO: AMS_processOption = C35B4C3
* 
* INFO: Valid Modules  PIP VG5 HIRES
* 
*****************************************************************************************


******************
DC Analysis `dcOp'
******************

Opening the PSF file ../psf/mc1_separate/007/dcOp.dc ...
Important parameter values:
    reltol = 100e-06
    abstol(V) = 1 uV
    abstol(I) = 1 pA
    temp = 85 C
    tnom = 27 C
    tempeffects = all
    gmindc = 1 pS
    rabsshort = 1 mOhm

Notice from spectre during DC analysis `dcOp', during Monte Carlo analysis `mc1'.
    Bad pivoting is found during DC analysis. Option dc_pivot_check=yes is recommended for possible improvement of convergence.


Maximum value achieved for any signal of each quantity: 
V: V(S<0>) = 3.3 V
I: I(V0:p) = 6.593 uA
Maximum value of each quantity, excluding Verilog-A modules or dangling current sources:
V: V(vout_filt) = 1.601 V
I: I(V0:p) = 6.593 uA

Warning from spectre during check, during DC analysis `dcOp', during Monte Carlo analysis `mc1'.
    WARNING (CMI-2943): Parameter checks have been ignored because the valid value for parameter 'trise' could not be found in 'C1'.
    WARNING (CMI-2943): Parameter checks have been ignored because the valid value for parameter 'trise' could not be found in 'I0.R2.CM'.
    WARNING (CMI-2943): Parameter checks have been ignored because the valid value for parameter 'trise' could not be found in 'I0.R2.CS1'.
    WARNING (CMI-2943): Parameter checks have been ignored because the valid value for parameter 'trise' could not be found in 'I0.R2.CS0'.
    WARNING (CMI-2943): Parameter checks have been ignored because the valid value for parameter 'trise' could not be found in 'I0.C8<3>.C1'.
        Further occurrences of this warning will be suppressed.

Convergence achieved in 19 iterations.
DC simulation time: CPU = 5.759 ms, elapsed = 7.00808 ms.
Total time required for dc analysis `dcOp': CPU = 6.234 ms, elapsed = 7.48205 ms, util. = 83.3%.
Time accumulated: CPU = 4.65313 s, elapsed = 5.35987 s.
Peak resident memory used = 214 Mbytes.


Notice from spectre during Monte Carlo analysis `mc1'.
    34 warnings suppressed.

dcOpInfo: writing operating point information to rawfile.

Opening the PSF file ../psf/mc1_separate/007/dcOpInfo.info ...

************************************************
Transient Analysis `tran': time = (0 s -> 40 ms)
************************************************

Opening the PSF file ../psf/mc1_separate/007/tran.tran.tran ...

Notice from spectre during IC analysis, during transient analysis `tran', during Monte Carlo analysis `mc1'.
    Bad pivoting is found during DC analysis. Option dc_pivot_check=yes is recommended for possible improvement of convergence.
Warning from spectre during check, during IC analysis, during transient analysis `tran', during Monte Carlo analysis `mc1'.
    WARNING (CMI-2943): Parameter checks have been ignored because the valid value for parameter 'trise' could not be found in 'C1'.
    WARNING (CMI-2943): Parameter checks have been ignored because the valid value for parameter 'trise' could not be found in 'I0.R2.CM'.
    WARNING (CMI-2943): Parameter checks have been ignored because the valid value for parameter 'trise' could not be found in 'I0.R2.CS1'.
    WARNING (CMI-2943): Parameter checks have been ignored because the valid value for parameter 'trise' could not be found in 'I0.R2.CS0'.
    WARNING (CMI-2943): Parameter checks have been ignored because the valid value for parameter 'trise' could not be found in 'I0.C8<3>.C1'.
        Further occurrences of this warning will be suppressed.

Convergence achieved in 19 iterations.
DC simulation time: CPU = 2.881 ms, elapsed = 2.882 ms.
Important parameter values:
    start = 0 s
    outputstart = 0 s
    stop = 40 ms
    step = 40 us
    maxstep = 400 us
    ic = all
    useprevic = no
    skipdc = no
    reltol = 10e-06
    abstol(V) = 1 uV
    abstol(I) = 1 pA
    temp = 85 C
    tnom = 27 C
    tempeffects = all
    errpreset = conservative
    method = gear2only
    lteratio = 10
    relref = alllocal
    cmin = 0 F
    gmin = 1 pS
    rabsshort = 1 mOhm


Notice from spectre during transient analysis `tran', during Monte Carlo analysis `mc1'.
    Multithreading is disabled due to the size of the design being too small.


Output and IC/nodeset summary:
                 save   8       (current)
                 save   87      (voltage)

    tran: time = 1.022 ms    (2.56 %), step = 48.27 us     (121 m%)
    tran: time = 3.036 ms    (7.59 %), step = 47.26 us     (118 m%)
    tran: time = 5.003 ms    (12.5 %), step = 50 us        (125 m%)
    tran: time = 7.017 ms    (17.5 %), step = 48.74 us     (122 m%)
    tran: time = 9.031 ms    (22.6 %), step = 47.62 us     (119 m%)
    tran: time = 11.04 ms    (27.6 %), step = 46.76 us     (117 m%)
    tran: time = 13.01 ms    (32.5 %), step = 49.23 us     (123 m%)
    tran: time = 15.03 ms    (37.6 %), step = 48.03 us     (120 m%)
    tran: time = 17.04 ms    (42.6 %), step = 47.07 us     (118 m%)
    tran: time = 19.01 ms    (47.5 %), step = 49.77 us     (124 m%)
    tran: time = 21.02 ms    (52.5 %), step = 48.49 us     (121 m%)
    tran: time = 23.03 ms    (57.6 %), step = 47.42 us     (119 m%)
    tran: time = 25 ms       (62.5 %), step = 50 us        (125 m%)
    tran: time = 27.01 ms    (67.5 %), step = 48.96 us     (122 m%)
    tran: time = 29.03 ms    (72.6 %), step = 47.81 us     (120 m%)
    tran: time = 31.04 ms    (77.6 %), step = 46.9 us      (117 m%)
    tran: time = 33.01 ms    (82.5 %), step = 49.47 us     (124 m%)
    tran: time = 35.02 ms    (87.6 %), step = 48.24 us     (121 m%)
    tran: time = 37.04 ms    (92.6 %), step = 47.23 us     (118 m%)
    tran: time = 39 ms       (97.5 %), step = 50 us        (125 m%)
[...]
Initial condition solution time: CPU = 2.806 ms, elapsed = 2.80786 ms.
Intrinsic tran analysis time:    CPU = 504.402 ms, elapsed = 506.067 ms.
Total time required for tran analysis `tran': CPU = 509.013 ms, elapsed = 511.221 ms, util. = 99.6%.
Time accumulated: CPU = 28.5046 s, elapsed = 29.9322 s.
Peak resident memory used = 215 Mbytes.


Notice from spectre during transient analysis `tran', during Monte Carlo analysis `mc1'.
    34 warnings suppressed.

finalTimeOP: writing operating point information to rawfile.

Opening the PSF file ../psf/mc1_separate/048/finalTimeOP.info ...
modelParameter: writing model parameter values to rawfile.

Opening the PSF file ../psf/mc1_separate/048/modelParameter.info ...
element: writing instance parameter values to rawfile.

Opening the PSF file ../psf/mc1_separate/048/element.info ...
outputParameter: writing output parameter values to rawfile.

Opening the PSF file ../psf/mc1_separate/048/outputParameter.info ...
designParamVals: writing netlist parameters to rawfile.

Opening the PSFASCII file ../psf/mc1_separate/048/designParamVals.info ...
primitives: writing primitives to rawfile.

Opening the PSFASCII file ../psf/mc1_separate/048/primitives.info.primitives ...
subckts: writing subcircuits to rawfile.

Opening the PSFASCII file ../psf/mc1_separate/048/subckts.info.subckts ...
    mc1: iteration = 48          (95.9 %), step = 1            (2.04 %)
49  97.96% 

*****************************************************************************************
* 
* INFO: AMS_processOption = C35B4C3
* 
* INFO: Valid Modules  PIP VG5 HIRES
* 
*****************************************************************************************


******************
DC Analysis `dcOp'
******************

Opening the PSF file ../psf/mc1_separate/049/dcOp.dc ...
Important parameter values:
    reltol = 100e-06
    abstol(V) = 1 uV
    abstol(I) = 1 pA
    temp = 85 C
    tnom = 27 C
    tempeffects = all
    gmindc = 1 pS
    rabsshort = 1 mOhm

Notice from spectre during DC analysis `dcOp', during Monte Carlo analysis `mc1'.
    Bad pivoting is found during DC analysis. Option dc_pivot_check=yes is recommended for possible improvement of convergence.


Maximum value achieved for any signal of each quantity: 
V: V(S<0>) = 3.3 V
I: I(V0:p) = 6.472 uA
Maximum value of each quantity, excluding Verilog-A modules or dangling current sources:
V: V(vout_filt) = 1.6 V
I: I(V0:p) = 6.472 uA

Warning from spectre during check, during DC analysis `dcOp', during Monte Carlo analysis `mc1'.
    WARNING (CMI-2943): Parameter checks have been ignored because the valid value for parameter 'trise' could not be found in 'C1'.
    WARNING (CMI-2943): Parameter checks have been ignored because the valid value for parameter 'trise' could not be found in 'I0.R2.CM'.
    WARNING (CMI-2943): Parameter checks have been ignored because the valid value for parameter 'trise' could not be found in 'I0.R2.CS1'.
    WARNING (CMI-2943): Parameter checks have been ignored because the valid value for parameter 'trise' could not be found in 'I0.R2.CS0'.
    WARNING (CMI-2943): Parameter checks have been ignored because the valid value for parameter 'trise' could not be found in 'I0.C8<3>.C1'.
        Further occurrences of this warning will be suppressed.

Convergence achieved in 19 iterations.
DC simulation time: CPU = 5.143 ms, elapsed = 6.42896 ms.
Total time required for dc analysis `dcOp': CPU = 5.637 ms, elapsed = 6.92105 ms, util. = 81.4%.
Time accumulated: CPU = 28.5484 s, elapsed = 29.988 s.
Peak resident memory used = 215 Mbytes.


Notice from spectre during Monte Carlo analysis `mc1'.
    34 warnings suppressed.

dcOpInfo: writing operating point information to rawfile.

Opening the PSF file ../psf/mc1_separate/049/dcOpInfo.info ...

************************************************
Transient Analysis `tran': time = (0 s -> 40 ms)
************************************************

Opening the PSF file ../psf/mc1_separate/049/tran.tran.tran ...

Notice from spectre during IC analysis, during transient analysis `tran', during Monte Carlo analysis `mc1'.
    Bad pivoting is found during DC analysis. Option dc_pivot_check=yes is recommended for possible improvement of convergence.
Warning from spectre during check, during IC analysis, during transient analysis `tran', during Monte Carlo analysis `mc1'.
    WARNING (CMI-2943): Parameter checks have been ignored because the valid value for parameter 'trise' could not be found in 'C1'.
    WARNING (CMI-2943): Parameter checks have been ignored because the valid value for parameter 'trise' could not be found in 'I0.R2.CM'.
    WARNING (CMI-2943): Parameter checks have been ignored because the valid value for parameter 'trise' could not be found in 'I0.R2.CS1'.
    WARNING (CMI-2943): Parameter checks have been ignored because the valid value for parameter 'trise' could not be found in 'I0.R2.CS0'.
    WARNING (CMI-2943): Parameter checks have been ignored because the valid value for parameter 'trise' could not be found in 'I0.C8<3>.C1'.
        Further occurrences of this warning will be suppressed.

Convergence achieved in 19 iterations.
DC simulation time: CPU = 2.746 ms, elapsed = 2.74706 ms.
Important parameter values:
    start = 0 s
    outputstart = 0 s
    stop = 40 ms
    step = 40 us
    maxstep = 400 us
    ic = all
    useprevic = no
    skipdc = no
    reltol = 10e-06
    abstol(V) = 1 uV
    abstol(I) = 1 pA
    temp = 85 C
    tnom = 27 C
    tempeffects = all
    errpreset = conservative
    method = gear2only
    lteratio = 10
    relref = alllocal
    cmin = 0 F
    gmin = 1 pS
    rabsshort = 1 mOhm


Notice from spectre during transient analysis `tran', during Monte Carlo analysis `mc1'.
    Multithreading is disabled due to the size of the design being too small.


Output and IC/nodeset summary:
                 save   8       (current)
                 save   87      (voltage)

    tran: time = 1.021 ms    (2.55 %), step = 48.33 us     (121 m%)
    tran: time = 3.035 ms    (7.59 %), step = 47.31 us     (118 m%)
    tran: time = 5.002 ms    (12.5 %), step = 50 us        (125 m%)
    tran: time = 7.015 ms    (17.5 %), step = 48.84 us     (122 m%)
    tran: time = 9.029 ms    (22.6 %), step = 47.72 us     (119 m%)
    tran: time = 11.04 ms    (27.6 %), step = 46.84 us     (117 m%)
    tran: time = 13.01 ms    (32.5 %), step = 49.39 us     (123 m%)
    tran: time = 15.02 ms    (37.6 %), step = 48.19 us     (120 m%)
    tran: time = 17.04 ms    (42.6 %), step = 47.2 us      (118 m%)
    tran: time = 19 ms       (47.5 %), step = 50 us        (125 m%)
    tran: time = 21.02 ms    (52.5 %), step = 48.69 us     (122 m%)
    tran: time = 23.03 ms    (57.6 %), step = 47.59 us     (119 m%)
    tran: time = 25.04 ms    (62.6 %), step = 46.75 us     (117 m%)
    tran: time = 27.01 ms    (67.5 %), step = 49.23 us     (123 m%)
    tran: time = 29.02 ms    (72.6 %), step = 48.05 us     (120 m%)
    tran: time = 31.04 ms    (77.6 %), step = 47.1 us      (118 m%)
    tran: time = 33.01 ms    (82.5 %), step = 49.83 us     (125 m%)
    tran: time = 35.02 ms    (87.5 %), step = 48.55 us     (121 m%)
    tran: time = 37.03 ms    (92.6 %), step = 47.49 us     (119 m%)
    tran: time = 39.05 ms    (97.6 %), step = 46.66 us     (117 m%)
Number of accepted tran steps =             851

Maximum value achieved for any signal of each quantity: 
V: V(S<0>) = 3.3 V
I: I(V0:p) = 6.472 uA
Maximum value of each quantity, excluding Verilog-A modules or dangling current sources:
V: V(vout_filt) = 1.614 V
I: I(V0:p) = 6.472 uA

~~~~~~~~~~~~~~~~~~~~~~~~~~~~~~~~~
Post-Transient Simulation Summary
~~~~~~~~~~~~~~~~~~~~~~~~~~~~~~~~~
   -   To further speed up simulation, consider
          add ++aps on command line
   -   Non-default settings that could significantly slow down simulation
          errpreset = conservative, default moderate
          reltol = 10e-06, default 100e-06 (conservative)
~~~~~~~~~~~~~~~~~~~~~~~~~~~~~~~~~


During simulation, the CPU load for active processors is :
         0 (26.7 %)      1 (19.5 %)      2 (47.9 %)      3 (31.6 %)
         4 (9.8 %)       5 (9.7 %)       6 (7.3 %)       7 (11.8 %)
         8 (28.2 %)      9 (9.8 %)      10 (50.4 %)     11 (29.7 %)
        12 (33.3 %)     13 (38.6 %)     14 (13.3 %)     15 (44.3 %)
        16 (35.3 %)     17 (41.5 %)     18 (43.0 %)     19 (23.0 %)
        20 (7.8 %)      21 (55.3 %)     22 (28.1 %)     23 (25.3 %)
        24 (45.8 %)     25 (25.9 %)     26 (16.2 %)     27 (23.9 %)
        28 (17.1 %)     29 (43.8 %)     30 (5.1 %)      31 (100.0 %)
        32 (10.1 %)     33 (25.6 %)     34 (15.4 %)     35 (58.8 %)
        36 (34.0 %)     37 (24.4 %)     38 (7.6 %)      39 (100.0 %)
        40 (26.5 %)     41 (26.7 %)     42 (20.7 %)     43 (14.4 %)
        44 (11.7 %)     45 (28.3 %)     46 (17.5 %)     47 (20.7 %)
        Total: 1391.3%
Initial condition solution time: CPU = 2.778 ms, elapsed = 2.78091 ms.
Intrinsic tran analysis time:    CPU = 503.267 ms, elapsed = 504.818 ms.
Total time required for tran analysis `tran': CPU = 507.817 ms, elapsed = 509.97 ms, util. = 99.6%.
Time accumulated: CPU = 29.0627 s, elapsed = 30.5069 s.
Peak resident memory used = 215 Mbytes.


Notice from spectre during transient analysis `tran', during Monte Carlo analysis `mc1'.
    34 warnings suppressed.

finalTimeOP: writing operating point information to rawfile.

Opening the PSF file ../psf/mc1_separate/049/finalTimeOP.info ...
modelParameter: writing model parameter values to rawfile.

Opening the PSF file ../psf/mc1_separate/049/modelParameter.info ...
element: writing instance parameter values to rawfile.

Opening the PSF file ../psf/mc1_separate/049/element.info ...
outputParameter: writing output parameter values to rawfile.

Opening the PSF file ../psf/mc1_separate/049/outputParameter.info ...
designParamVals: writing netlist parameters to rawfile.

Opening the PSFASCII file ../psf/mc1_separate/049/designParamVals.info ...
primitives: writing primitives to rawfile.

Opening the PSFASCII file ../psf/mc1_separate/049/primitives.info.primitives ...
subckts: writing subcircuits to rawfile.

Opening the PSFASCII file ../psf/mc1_separate/049/subckts.info.subckts ...
    mc1: iteration = 49            (98 %), step = 1            (2.04 %)
50 100.00% 

*****************************************************************************************
* 
* INFO: AMS_processOption = C35B4C3
* 
* INFO: Valid Modules  PIP VG5 HIRES
* 
*****************************************************************************************


******************
DC Analysis `dcOp'
******************

Opening the PSF file ../psf/mc1_separate/050/dcOp.dc ...
Important parameter values:
    reltol = 100e-06
    abstol(V) = 1 uV
    abstol(I) = 1 pA
    temp = 85 C
    tnom = 27 C
    tempeffects = all
    gmindc = 1 pS
    rabsshort = 1 mOhm

Notice from spectre during DC analysis `dcOp', during Monte Carlo analysis `mc1'.
    Bad pivoting is found during DC analysis. Option dc_pivot_check=yes is recommended for possible improvement of convergence.


Maximum value achieved for any signal of each quantity: 
V: V(S<0>) = 3.3 V
I: I(V0:p) = 6.414 uA
Maximum value of each quantity, excluding Verilog-A modules or dangling current sources:
V: V(vout_filt) = 1.601 V
I: I(V0:p) = 6.414 uA

Warning from spectre during check, during DC analysis `dcOp', during Monte Carlo analysis `mc1'.
    WARNING (CMI-2943): Parameter checks have been ignored because the valid value for parameter 'trise' could not be found in 'C1'.
    WARNING (CMI-2943): Parameter checks have been ignored because the valid value for parameter 'trise' could not be found in 'I0.R2.CM'.
    WARNING (CMI-2943): Parameter checks have been ignored because the valid value for parameter 'trise' could not be found in 'I0.R2.CS1'.
    WARNING (CMI-2943): Parameter checks have been ignored because the valid value for parameter 'trise' could not be found in 'I0.R2.CS0'.
    WARNING (CMI-2943): Parameter checks have been ignored because the valid value for parameter 'trise' could not be found in 'I0.C8<3>.C1'.
        Further occurrences of this warning will be suppressed.

Convergence achieved in 19 iterations.
DC simulation time: CPU = 5.205 ms, elapsed = 6.63996 ms.
Total time required for dc analysis `dcOp': CPU = 5.653 ms, elapsed = 7.08795 ms, util. = 79.8%.
Time accumulated: CPU = 29.1068 s, elapsed = 30.5631 s.
Peak resident memory used = 215 Mbytes.


Notice from spectre during Monte Carlo analysis `mc1'.
    34 warnings suppressed.

dcOpInfo: writing operating point information to rawfile.

Opening the PSF file ../psf/mc1_separate/050/dcOpInfo.info ...

************************************************
Transient Analysis `tran': time = (0 s -> 40 ms)
************************************************

Opening the PSF file ../psf/mc1_separate/050/tran.tran.tran ...

Notice from spectre during IC analysis, during transient analysis `tran', during Monte Carlo analysis `mc1'.
    Bad pivoting is found during DC analysis. Option dc_pivot_check=yes is recommended for possible improvement of convergence.
Warning from spectre during check, during IC analysis, during transient analysis `tran', during Monte Carlo analysis `mc1'.
    WARNING (CMI-2943): Parameter checks have been ignored because the valid value for parameter 'trise' could not be found in 'C1'.
    WARNING (CMI-2943): Parameter checks have been ignored because the valid value for parameter 'trise' could not be found in 'I0.R2.CM'.
    WARNING (CMI-2943): Parameter checks have been ignored because the valid value for parameter 'trise' could not be found in 'I0.R2.CS1'.
    WARNING (CMI-2943): Parameter checks have been ignored because the valid value for parameter 'trise' could not be found in 'I0.R2.CS0'.
    WARNING (CMI-2943): Parameter checks have been ignored because the valid value for parameter 'trise' could not be found in 'I0.C8<3>.C1'.
        Further occurrences of this warning will be suppressed.

Convergence achieved in 19 iterations.
DC simulation time: CPU = 2.749 ms, elapsed = 2.74992 ms.
Important parameter values:
    start = 0 s
    outputstart = 0 s
    stop = 40 ms
    step = 40 us
    maxstep = 400 us
    ic = all
    useprevic = no
    skipdc = no
    reltol = 10e-06
    abstol(V) = 1 uV
    abstol(I) = 1 pA
    temp = 85 C
    tnom = 27 C
    tempeffects = all
    errpreset = conservative
    method = gear2only
    lteratio = 10
    relref = alllocal
    cmin = 0 F
    gmin = 1 pS
    rabsshort = 1 mOhm


Notice from spectre during transient analysis `tran', during Monte Carlo analysis `mc1'.
    Multithreading is disabled due to the size of the design being too small.


Output and IC/nodeset summary:
                 save   8       (current)
                 save   87      (voltage)

    tran: time = 1.021 ms    (2.55 %), step = 48.32 us     (121 m%)
    tran: time = 3.035 ms    (7.59 %), step = 47.29 us     (118 m%)
    tran: time = 5.003 ms    (12.5 %), step = 50 us        (125 m%)
    tran: time = 7.016 ms    (17.5 %), step = 48.79 us     (122 m%)
    tran: time = 9.03 ms     (22.6 %), step = 47.66 us     (119 m%)
    tran: time = 11.04 ms    (27.6 %), step = 46.79 us     (117 m%)
    tran: time = 13.01 ms    (32.5 %), step = 49.29 us     (123 m%)
    tran: time = 15.02 ms    (37.6 %), step = 48.09 us     (120 m%)
    tran: time = 17.04 ms    (42.6 %), step = 47.12 us     (118 m%)
    tran: time = 19.01 ms    (47.5 %), step = 49.85 us     (125 m%)
    tran: time = 21.02 ms    (52.5 %), step = 48.55 us     (121 m%)
    tran: time = 23.03 ms    (57.6 %), step = 47.47 us     (119 m%)
    tran: time = 25.05 ms    (62.6 %), step = 46.64 us     (117 m%)
    tran: time = 27.01 ms    (67.5 %), step = 49.04 us     (123 m%)
    tran: time = 29.03 ms    (72.6 %), step = 47.87 us     (120 m%)
    tran: time = 31.04 ms    (77.6 %), step = 46.95 us     (117 m%)
    tran: time = 33.01 ms    (82.5 %), step = 49.56 us     (124 m%)
    tran: time = 35.02 ms    (87.6 %), step = 48.31 us     (121 m%)
    tran: time = 37.04 ms    (92.6 %), step = 47.29 us     (118 m%)
    tran: time = 39 ms       (97.5 %), step = 50 us        (125 m%)
Number of accepted tran steps =             851

Maximum value achieved for any signal of each quantity: 
V: V(S<0>) = 3.3 V
I: I(V0:p) = 6.415 uA
Maximum value of each quantity, excluding Verilog-A modules or dangling current sources:
V: V(vout_filt) = 1.614 V
I: I(V0:p) = 6.415 uA

~~~~~~~~~~~~~~~~~~~~~~~~~~~~~~~~~
Post-Transient Simulation Summary
~~~~~~~~~~~~~~~~~~~~~~~~~~~~~~~~~
   -   To further speed up simulation, consider
          add ++aps on command line
   -   Non-default settings that could significantly slow down simulation
          errpreset = conservative, default moderate
          reltol = 10e-06, default 100e-06 (conservative)
~~~~~~~~~~~~~~~~~~~~~~~~~~~~~~~~~


During simulation, the CPU load for active processors is :
         0 (26.3 %)      1 (21.0 %)      2 (48.7 %)      3 (31.1 %)
         4 (10.0 %)      5 (9.9 %)       6 (7.2 %)       7 (11.7 %)
         8 (28.0 %)      9 (9.7 %)      10 (49.5 %)     11 (29.2 %)
        12 (34.6 %)     13 (37.9 %)     14 (13.1 %)     15 (43.5 %)
        16 (34.7 %)     17 (40.8 %)     18 (44.1 %)     19 (22.6 %)
        20 (7.7 %)      21 (54.3 %)     22 (29.4 %)     23 (24.8 %)
        24 (45.0 %)     25 (25.4 %)     26 (16.0 %)     27 (23.5 %)
        28 (16.8 %)     29 (44.9 %)     30 (5.1 %)      31 (100.0 %)
        32 (10.1 %)     33 (25.1 %)     34 (15.5 %)     35 (59.5 %)
        36 (34.0 %)     37 (24.0 %)     38 (7.5 %)      39 (100.0 %)
        40 (26.1 %)     41 (26.3 %)     42 (20.5 %)     43 (14.2 %)
        44 (11.5 %)     45 (27.8 %)     46 (19.0 %)     47 (20.3 %)
        Total: 1387.8%
Initial condition solution time: CPU = 2.782 ms, elapsed = 2.78211 ms.
Intrinsic tran analysis time:    CPU = 503.738 ms, elapsed = 505.511 ms.
Total time required for tran analysis `tran': CPU = 508.328 ms, elapsed = 510.839 ms, util. = 99.5%.
Time accumulated: CPU = 29.6221 s, elapsed = 31.0834 s.
Peak resident memory used = 215 Mbytes.


Notice from spectre during transient analysis `tran', during Monte Carlo analysis `mc1'.
    34 warnings suppressed.

finalTimeOP: writing operating point information to rawfile.

Opening the PSF file ../psf/mc1_separate/050/finalTimeOP.info ...
modelParameter: writing model parameter values to rawfile.

Opening the PSF file ../psf/mc1_separate/050/modelParameter.info ...
element: writing instance parameter values to rawfile.

Opening the PSF file ../psf/mc1_separate/050/element.info ...
outputParameter: writing output parameter values to rawfile.

Opening the PSF file ../psf/mc1_separate/050/outputParameter.info ...
designParamVals: writing netlist parameters to rawfile.

Opening the PSFASCII file ../psf/mc1_separate/050/designParamVals.info ...
primitives: writing primitives to rawfile.

Opening the PSFASCII file ../psf/mc1_separate/050/primitives.info.primitives ...
subckts: writing subcircuits to rawfile.

Opening the PSFASCII file ../psf/mc1_separate/050/subckts.info.subckts ...
    mc1: iteration = 50           (100 %), step = 1            (2.04 %)
Total time required for montecarlo analysis `mc1': CPU = 29.1866 s, elapsed = 30.0988 s, util. = 97%.
Time accumulated: CPU = 29.6496 s, elapsed = 31.1248 s.
Peak resident memory used = 215 Mbytes.

Licensing Information:
Lic Summary:
[09:07:55.425225] Cdslmd servers:3000@lic08.ug.kth.se:29000@lic06.ug.kth.se
[09:07:55.425272] Feature usage summary:
[09:07:55.425273] Virtuoso_Multi_mode_Simulation


Aggregate audit (9:07:55 AM, Thur Apr 16, 2026):
Time used: CPU = 29.7 s, elapsed = 31.1 s, util. = 95.3%.
Time spent in licensing: elapsed = 52.8 ms.
Peak memory used = 215 Mbytes.
Simulation started at: 9:07:24 AM, Thur Apr 16, 2026, ended at: 9:07:55 AM, Thur Apr 16, 2026, with elapsed time (wall clock): 31.1 s.
spectre completes with 0 errors, 527 warnings, and 262 notices.
