
Spectre (R) Circuit Simulator
Version 24.1.0.288.isr5 64bit -- 3 Apr 2025
Copyright (C) 1989-2025 Cadence Design Systems, Inc. All rights reserved worldwide. Cadence and Spectre are registered trademarks of Cadence Design Systems, Inc. All others are the property of their respective holders.

Includes RSA BSAFE(R) Cryptographic or Security Protocol Software from RSA Security, Inc.

User: davidevi   Host: il2244vt26_davidevi   HostID: 11AC2C00   PID: 467501
Memory  available: 3.0750 TB  physical: 3.2467 TB
Linux   : Rocky Linux release 8.10 (Green Obsidian)
CPU Type: Intel(R) Xeon(R) CPU E7-8857 v2 @ 3.00GHz
        Socket: Processors [Frequency]
        0:       0 [1200.0],  1 [1200.0],  2 [3600.0],  3 [2500.0],  4 [2800.0]
                 5 [2999.9],  6 [2800.0],  7 [2999.9],  8 [2999.9],  9 [1200.0]
                10 [2600.0], 11 [2600.0]
        1:      12 [2999.9], 13 [3600.0], 14 [1200.0], 15 [3600.0], 16 [3600.0]
                17 [3600.0], 18 [2500.0], 19 [2999.9], 20 [3600.0], 21 [2999.9]
                22 [3600.0], 23 [2999.9]
        2:      24 [2500.0], 25 [3399.9], 26 [3399.9], 27 [1200.0], 28 [1200.0]
                29 [2974.4], 30 [3600.0], 31 [3600.0], 32 [1200.0], 33 [1200.0]
                34 [2400.0], 35 [1200.0]
        3:      36 [3600.0], 37 [3600.0], 38 [3600.0], 39 [1200.0], 40 [3600.0]
                41 [2999.9], 42 [2800.0], 43 [1200.0], 44 [2999.3], 45 [2300.0]
                46 [3600.0], 47 [1200.0]
        
System load averages (1min, 5min, 15min) : 16.3 %, 14.7 %, 14.0 %
HPC is enabled


Simulating `input.scs' on il2244vt26_davidevi at 5:46:20 PM, Mon Mar 16, 2026 (process id: 467501).
Current working directory: /home/davidevi/Desktop/myproject/Sim/CHARACTERIZATION/GM_ID_PMOS/adexl/results/data/Ocean.4/1/CHARACTERIZATION:GM_ID_PMOS:1/netlist
Command line:
    /opt/tools/cadence/installs/SPECTRE241/tools/bin/spectre -64  \
        input.scs +escchars +log ../psf/spectre.out -format psfbin  \
        +rtsf -raw ../psf +aps +mt +lqtimeout 900 -maxw 5 -maxn 5  \
        +param /opt/pdk/ams/410/spectre/ams_range.lmts -env ade  \
        -ahdllibdir  \
        /home/davidevi/Desktop/myproject/Sim/CHARACTERIZATION/GM_ID_PMOS/adexl/results/data/Ocean.4/sharedData/Job14/ahdl/input.ahdlSimDB  \
        +logstatus  \
        +adespetkn=0001089D13A302B663E41FB550AF0DF415A679A322D5069144BF588C12F604E07EF416DC01A319B562BB63D364A922E045A343E233FB25B144CD17F112C04F9203DD79D15D9175FF34986BDD0AF002BA50FD7FD707E002A700AC1C841AF744EA0EA979D12AF874D3349879D118F874D334981069591335385D2000003611

Simulation Id: V3zaJfpUQb1yYe7E
Licensing Information:
[17:46:20.121762] Configured Lic search path (24.01-s002): 3000@lic08.ug.kth.se:29000@lic06.ug.kth.se

Licensing Information:
[17:46:20.378491] Periodic Lic check successful

Loading /opt/tools/cadence/installs/SPECTRE241/tools.lnx86/cmi/lib/64bit/5.0/libinfineon_sh.so ...
Loading /opt/tools/cadence/installs/SPECTRE241/tools.lnx86/cmi/lib/64bit/5.0/libphilips_I_sh.so ...
Loading /opt/tools/cadence/installs/SPECTRE241/tools.lnx86/cmi/lib/64bit/5.0/libphilips_sh.so ...
Loading /opt/tools/cadence/installs/SPECTRE241/tools.lnx86/cmi/lib/64bit/5.0/libsparam_sh.so ...
Loading /opt/tools/cadence/installs/SPECTRE241/tools.lnx86/cmi/lib/64bit/5.0/libstmodels_sh.so ...

Warning from spectre.
    WARNING (SPECTRE-691): This CPU processor does not support x86 advanced vector extensions instructions. This may affect math operations and slow down the simulation.

Reading file:  /home/davidevi/Desktop/myproject/Sim/CHARACTERIZATION/GM_ID_PMOS/adexl/results/data/Ocean.4/1/CHARACTERIZATION:GM_ID_PMOS:1/netlist/input.scs
Reading file:  /opt/pdk/ams/410/spectre/ams_range.lmts

Warning from spectre during read of parameter soft limits file `/opt/pdk/ams/410/spectre/ams_range.lmts', during circuit read-in.
    WARNING (SPECTRE-8360): line 1511: `ac' is an undefined primitive device.
    WARNING (SPECTRE-8360): line 1512: `ac' is an undefined primitive device.
    WARNING (SPECTRE-8360): line 1513: `ac' is an undefined primitive device.
    WARNING (SPECTRE-8360): line 1514: `ac' is an undefined primitive device.
    WARNING (SPECTRE-8360): line 1515: `ac' is an undefined primitive device.
        Further occurrences of this warning will be suppressed.

Reading file:  /opt/tools/cadence/installs/SPECTRE241/tools.lnx86/spectre/etc/configs/spectre.cfg
Reading file:  /opt/pdk/ams/410/spectre/c35/soac/soac.scs
Reading file:  /opt/pdk/ams/410/spectre/c35/soac/processOption.scs
Reading file:  /opt/pdk/ams/410/spectre/c35/soac/process.scs
Reading file:  /opt/pdk/ams/410/spectre/c35/soac/soac.va

Warning from spectre during AHDL read-in.
    WARNING (VACOMP-2435): The environment variable CDS_AHDLCMI_ENABLE is no longer supported. Therefore, the simulator will use the default compiled C code flow.

Reading link:  /opt/tools/cadence/installs/SPECTRE241/tools.lnx86/spectre/etc/ahdl/constants.h
Reading file:  /opt/tools/cadence/installs/SPECTRE241/tools.lnx86/spectre/etc/ahdl/constants.vams
Reading link:  /opt/tools/cadence/installs/SPECTRE241/tools.lnx86/spectre/etc/ahdl/discipline.h
Reading file:  /opt/tools/cadence/installs/SPECTRE241/tools.lnx86/spectre/etc/ahdl/disciplines.vams
Reading file:  /opt/pdk/ams/410/spectre/c35/processOption/C35B4C3.scs
Reading file:  /opt/pdk/ams/410/spectre/c35/soac/cmos53.scs
Reading file:  /opt/pdk/ams/410/spectre/c35/soac/res.scs
Reading file:  /opt/pdk/ams/410/spectre/c35/soac/cap.scs
Reading file:  /opt/pdk/ams/410/spectre/c35/soac/bip.scs
Reading file:  /opt/pdk/ams/410/spectre/c35/soac/ind.scs
Reading file:  /opt/pdk/ams/410/spectre/c35/soac/esddiode.scs
Time for NDB Parsing: CPU = 164.578 ms, elapsed = 326.127 ms.
Time accumulated: CPU = 367.751 ms, elapsed = 326.131 ms.
Peak resident memory used = 176 Mbytes.

Existing shared object for module modp_ahdl is up to date.
Installed compiled interface for modp_ahdl.
Time for Elaboration: CPU = 34.141 ms, elapsed = 36.3131 ms.
Time accumulated: CPU = 402.146 ms, elapsed = 362.696 ms.
Peak resident memory used = 185 Mbytes.


Notice from spectre during hierarchy flattening.
    The value 'psf' specified for the 'checklimitdest' option will no longer be supported in future releases. Use 'spectre -h' to see other recommended values for the 'checklimitdest' option.


*****************************************************************************************
* 
* INFO: AMS_processOption = C35B4C3
* 
* INFO: Valid Modules  PIP VG5 HIRES
* 
*****************************************************************************************


Time for EDB Visiting: CPU = 3.173 ms, elapsed = 3.17192 ms.
Time accumulated: CPU = 405.504 ms, elapsed = 366.052 ms.
Peak resident memory used = 188 Mbytes.

Loading /opt/tools/cadence/installs/SPECTRE241/tools.lnx86/mdl/lib/64bit/libSpectreEH_sh.so ...

Warning from spectre during initial setup.
    WARNING (SPECTRE-16460): SOAC_cvarm_vspsub:Specified subcircuit master `cvarm' was not found.
    WARNING (SPECTRE-16462): SOAC_cvarm_vspsub:Error in specification of subcircuit master. Assert is ignored.
    WARNING (SPECTRE-16460): SOAC_cvarm_vbs:Specified subcircuit master `cvarm' was not found.
    WARNING (SPECTRE-16462): SOAC_cvarm_vbs:Error in specification of subcircuit master. Assert is ignored.
    WARNING (SPECTRE-16460): SOAC_cvarm_vgb:Specified subcircuit master `cvarm' was not found.
    WARNING (SPECTRE-16462): SOAC_cvarm_vgb:Error in specification of subcircuit master. Assert is ignored.
    WARNING (SPECTRE-16460): SOAC_cvart_vspsub:Specified subcircuit master `cvart' was not found.
    WARNING (SPECTRE-16462): SOAC_cvart_vspsub:Error in specification of subcircuit master. Assert is ignored.
    WARNING (SPECTRE-16460): SOAC_cvart_vbs:Specified subcircuit master `cvart' was not found.
        Further occurrences of this warning will be suppressed.
    WARNING (SPECTRE-16462): SOAC_cvart_vbs:Error in specification of subcircuit master. Assert is ignored.
        Further occurrences of this warning will be suppressed.
Notice from spectre during topology check.
    Only one connection to the following 2 nodes:
        0
        MP0.psub!
Notice from spectre during initial setup.
    Multithreading is disabled due to the size of the design being too small.


Netlist title:
        // Generated for: spectre


Global user options:
         psfversion = 1.4.0
            vabstol = 1e-06
            iabstol = 1e-12
               temp = 27
           homotopy = 5
              limit = delta
         compatible = spice2
               gmin = 1e-12
             rforce = 1
           maxnotes = 5
           maxwarns = 5
             digits = 5
               cols = 80
             pivrel = 0.001
           sensfile = ../psf/sens.output
     checklimitdest = psf
     enable_pre_ver = yes
      ignorezerovar = yes
               save = allpub
             reltol = 0.0001
               tnom = 27
             scalem = 1
              scale = 1

Scoped user options:

Circuit inventory:
              nodes 5
            bsim3v3 1     
            isource 1     
          modp_ahdl 1     
               vcvs 1     
            vsource 2     

Analysis and control statement inventory:
                 dc 1     
               info 7     

Output statements:
             .probe 0     
           .measure 0     
               save 0     

Design checks inventory:
          paramtest 2     
             assert 175   


Notice from spectre during initial setup.
    APS enabled.
    72 warnings suppressed.

Time for parsing: CPU = 12.783 ms, elapsed = 617.615 ms.
Time accumulated: CPU = 418.411 ms, elapsed = 983.792 ms.
Peak resident memory used = 193 Mbytes.

~~~~~~~~~~~~~~~~~~~~~~
Pre-Simulation Summary
~~~~~~~~~~~~~~~~~~~~~~
   -   (APS) Multi-threading. The recommended number of threads is 1, consider adding +mt=1 on command line.
~~~~~~~~~~~~~~~~~~~~~~

******************
DC Analysis `dcOp'
******************

Notice from spectre during DC analysis `dcOp'.
    No checklimit analysis defined for asserts. A default checklimit analysis 'SpectreChecklimitAnal' has been created with all asserts enabled.


Opening the PSF file ../psf/dcOp.dc ...
Important parameter values:
    reltol = 100e-06
    abstol(V) = 1 uV
    abstol(I) = 1 pA
    temp = 27 C
    tnom = 27 C
    tempeffects = all
    gmindc = 1 pS
    rabsshort = 1 mOhm
Trying `homotopy = gmin'.
Homotopy: gmin, steps: 51

Maximum value achieved for any signal of each quantity: 
V: V(net3) = 3.3 V
I: I(V2:p) = 11.29 aA
Maximum value of each quantity, excluding Verilog-A modules or dangling current sources:
V: V(net4) = 1.8 V
I: I(V2:p) = 11.29 aA
Convergence achieved in 401 iterations.
DC simulation time: CPU = 87.295 ms, elapsed = 90.8959 ms.
Total time required for dc analysis `dcOp': CPU = 87.429 ms, elapsed = 91.0211 ms, util. = 96.1%.
Time accumulated: CPU = 527.828 ms, elapsed = 1.09725 s.
Peak resident memory used = 202 Mbytes.

dcOpInfo: writing operating point information to rawfile.

Opening the PSF file ../psf/dcOpInfo.info ...
modelParameter: writing model parameter values to rawfile.

Opening the PSF file ../psf/modelParameter.info ...
element: writing instance parameter values to rawfile.

Opening the PSF file ../psf/element.info ...
outputParameter: writing output parameter values to rawfile.

Opening the PSF file ../psf/outputParameter.info ...
designParamVals: writing netlist parameters to rawfile.

Opening the PSFASCII file ../psf/designParamVals.info ...
primitives: writing primitives to rawfile.

Opening the PSFASCII file ../psf/primitives.info.primitives ...
subckts: writing subcircuits to rawfile.

Opening the PSFASCII file ../psf/subckts.info.subckts ...
Licensing Information:
Lic Summary:
[17:46:21.318146] Cdslmd servers:3000@lic08.ug.kth.se:29000@lic06.ug.kth.se
[17:46:21.842475] Feature usage summary:
[17:46:21.842480] Virtuoso_Multi_mode_Simulation


Aggregate audit (5:46:21 PM, Mon Mar 16, 2026):
Time used: CPU = 550 ms, elapsed = 1.13 s, util. = 48.8%.
Time spent in licensing: elapsed = 50.9 ms.
Peak memory used = 203 Mbytes.
Simulation started at: 5:46:20 PM, Mon Mar 16, 2026, ended at: 5:46:21 PM, Mon Mar 16, 2026, with elapsed time (wall clock): 1.13 s.
spectre completes with 0 errors, 17 warnings, and 7 notices.


********* LOG ENDS **************
**                             **
**                             **
********* LOG STARTS ************



Spectre (R) Circuit Simulator
Version 24.1.0.288.isr5 64bit -- 3 Apr 2025
Copyright (C) 1989-2025 Cadence Design Systems, Inc. All rights reserved worldwide. Cadence and Spectre are registered trademarks of Cadence Design Systems, Inc. All others are the property of their respective holders.

Includes RSA BSAFE(R) Cryptographic or Security Protocol Software from RSA Security, Inc.

User: davidevi   Host: il2244vt26_davidevi   HostID: 11AC2C00   PID: 467621
Memory  available: 3.0749 TB  physical: 3.2467 TB
Linux   : Rocky Linux release 8.10 (Green Obsidian)
CPU Type: Intel(R) Xeon(R) CPU E7-8857 v2 @ 3.00GHz
        Socket: Processors [Frequency]
        0:       0 [3100.0],  1 [1200.0],  2 [1200.0],  3 [2500.0],  4 [2400.0]
                 5 [3600.0],  6 [3600.0],  7 [2999.9],  8 [3000.0],  9 [3600.0]
                10 [2999.9], 11 [2600.0]
        1:      12 [2999.9], 13 [3600.0], 14 [3600.0], 15 [1200.0], 16 [2999.9]
                17 [3600.0], 18 [2999.9], 19 [2999.9], 20 [2999.9], 21 [3500.0]
                22 [3600.0], 23 [1200.0]
        2:      24 [1200.0], 25 [3399.9], 26 [2400.0], 27 [2700.0], 28 [3600.0]
                29 [3600.0], 30 [3399.9], 31 [1200.0], 32 [2700.0], 33 [2500.0]
                34 [2500.0], 35 [3399.9]
        3:      36 [2300.0], 37 [3600.0], 38 [1200.0], 39 [2400.0], 40 [1200.0]
                41 [2999.9], 42 [1200.0], 43 [3600.0], 44 [2800.0], 45 [2600.0]
                46 [3600.0], 47 [2500.0]
        
System load averages (1min, 5min, 15min) : 16.3 %, 14.7 %, 14.0 %
HPC is enabled


Simulating `input.scs' on il2244vt26_davidevi at 5:46:21 PM, Mon Mar 16, 2026 (process id: 467621).
Current working directory: /home/davidevi/Desktop/myproject/Sim/CHARACTERIZATION/GM_ID_PMOS/adexl/results/data/Ocean.4/2/CHARACTERIZATION:GM_ID_PMOS:1/netlist
Command line:
    /opt/tools/cadence/installs/SPECTRE241/tools/bin/spectre -64  \
        input.scs +escchars +log ../psf/spectre.out -format psfbin  \
        +rtsf -raw ../psf +aps +mt +lqtimeout 900 -maxw 5 -maxn 5  \
        +param /opt/pdk/ams/410/spectre/ams_range.lmts -env ade  \
        -ahdllibdir  \
        /home/davidevi/Desktop/myproject/Sim/CHARACTERIZATION/GM_ID_PMOS/adexl/results/data/Ocean.4/sharedData/Job13/ahdl/input.ahdlSimDB  \
        +logstatus  \
        +adespetkn=0001089D13A302B663E41FB550AF0DF415A679A322D5069144BF588C12F604E07EF416DC01A319B562BB63D36BDE2D9745A359E53BDE0DB250FE55CA6BFC4F9253D679D15D9175FF34986BDD0AF002BA50FD7FD707E002A700AC1C841FF941E40EA979D120F874D3349879D118F874D3349810695914353F5D200000368A

Simulation Id: YDZGDRdfyaHEKUgN
Licensing Information:
[17:46:21.121770] Configured Lic search path (24.01-s002): 3000@lic08.ug.kth.se:29000@lic06.ug.kth.se

Licensing Information:
[17:46:21.007696] Periodic Lic check successful

Loading /opt/tools/cadence/installs/SPECTRE241/tools.lnx86/cmi/lib/64bit/5.0/libinfineon_sh.so ...
Loading /opt/tools/cadence/installs/SPECTRE241/tools.lnx86/cmi/lib/64bit/5.0/libphilips_I_sh.so ...
Loading /opt/tools/cadence/installs/SPECTRE241/tools.lnx86/cmi/lib/64bit/5.0/libphilips_sh.so ...
Loading /opt/tools/cadence/installs/SPECTRE241/tools.lnx86/cmi/lib/64bit/5.0/libsparam_sh.so ...
Loading /opt/tools/cadence/installs/SPECTRE241/tools.lnx86/cmi/lib/64bit/5.0/libstmodels_sh.so ...

Warning from spectre.
    WARNING (SPECTRE-691): This CPU processor does not support x86 advanced vector extensions instructions. This may affect math operations and slow down the simulation.

Reading file:  /home/davidevi/Desktop/myproject/Sim/CHARACTERIZATION/GM_ID_PMOS/adexl/results/data/Ocean.4/2/CHARACTERIZATION:GM_ID_PMOS:1/netlist/input.scs
Reading file:  /opt/pdk/ams/410/spectre/ams_range.lmts

Warning from spectre during read of parameter soft limits file `/opt/pdk/ams/410/spectre/ams_range.lmts', during circuit read-in.
    WARNING (SPECTRE-8360): line 1511: `ac' is an undefined primitive device.
    WARNING (SPECTRE-8360): line 1512: `ac' is an undefined primitive device.
    WARNING (SPECTRE-8360): line 1513: `ac' is an undefined primitive device.
    WARNING (SPECTRE-8360): line 1514: `ac' is an undefined primitive device.
    WARNING (SPECTRE-8360): line 1515: `ac' is an undefined primitive device.
        Further occurrences of this warning will be suppressed.

Reading file:  /opt/tools/cadence/installs/SPECTRE241/tools.lnx86/spectre/etc/configs/spectre.cfg
Reading file:  /opt/pdk/ams/410/spectre/c35/soac/soac.scs
Reading file:  /opt/pdk/ams/410/spectre/c35/soac/processOption.scs
Reading file:  /opt/pdk/ams/410/spectre/c35/soac/process.scs
Reading file:  /opt/pdk/ams/410/spectre/c35/soac/soac.va

Warning from spectre during AHDL read-in.
    WARNING (VACOMP-2435): The environment variable CDS_AHDLCMI_ENABLE is no longer supported. Therefore, the simulator will use the default compiled C code flow.

Reading link:  /opt/tools/cadence/installs/SPECTRE241/tools.lnx86/spectre/etc/ahdl/constants.h
Reading file:  /opt/tools/cadence/installs/SPECTRE241/tools.lnx86/spectre/etc/ahdl/constants.vams
Reading link:  /opt/tools/cadence/installs/SPECTRE241/tools.lnx86/spectre/etc/ahdl/discipline.h
Reading file:  /opt/tools/cadence/installs/SPECTRE241/tools.lnx86/spectre/etc/ahdl/disciplines.vams
Reading file:  /opt/pdk/ams/410/spectre/c35/processOption/C35B4C3.scs
Reading file:  /opt/pdk/ams/410/spectre/c35/soac/cmos53.scs
Reading file:  /opt/pdk/ams/410/spectre/c35/soac/res.scs
Reading file:  /opt/pdk/ams/410/spectre/c35/soac/cap.scs
Reading file:  /opt/pdk/ams/410/spectre/c35/soac/bip.scs
Reading file:  /opt/pdk/ams/410/spectre/c35/soac/ind.scs
Reading file:  /opt/pdk/ams/410/spectre/c35/soac/esddiode.scs
Time for NDB Parsing: CPU = 167.505 ms, elapsed = 323.693 ms.
Time accumulated: CPU = 374.852 ms, elapsed = 323.696 ms.
Peak resident memory used = 175 Mbytes.

Existing shared object for module modp_ahdl is up to date.
Installed compiled interface for modp_ahdl.
Time for Elaboration: CPU = 32.469 ms, elapsed = 32.8159 ms.
Time accumulated: CPU = 407.484 ms, elapsed = 356.674 ms.
Peak resident memory used = 185 Mbytes.


Notice from spectre during hierarchy flattening.
    The value 'psf' specified for the 'checklimitdest' option will no longer be supported in future releases. Use 'spectre -h' to see other recommended values for the 'checklimitdest' option.


*****************************************************************************************
* 
* INFO: AMS_processOption = C35B4C3
* 
* INFO: Valid Modules  PIP VG5 HIRES
* 
*****************************************************************************************


Time for EDB Visiting: CPU = 2.97 ms, elapsed = 2.96998 ms.
Time accumulated: CPU = 410.679 ms, elapsed = 359.868 ms.
Peak resident memory used = 188 Mbytes.

Loading /opt/tools/cadence/installs/SPECTRE241/tools.lnx86/mdl/lib/64bit/libSpectreEH_sh.so ...

Warning from spectre during initial setup.
    WARNING (SPECTRE-16460): SOAC_cvarm_vspsub:Specified subcircuit master `cvarm' was not found.
    WARNING (SPECTRE-16462): SOAC_cvarm_vspsub:Error in specification of subcircuit master. Assert is ignored.
    WARNING (SPECTRE-16460): SOAC_cvarm_vbs:Specified subcircuit master `cvarm' was not found.
    WARNING (SPECTRE-16462): SOAC_cvarm_vbs:Error in specification of subcircuit master. Assert is ignored.
    WARNING (SPECTRE-16460): SOAC_cvarm_vgb:Specified subcircuit master `cvarm' was not found.
    WARNING (SPECTRE-16462): SOAC_cvarm_vgb:Error in specification of subcircuit master. Assert is ignored.
    WARNING (SPECTRE-16460): SOAC_cvart_vspsub:Specified subcircuit master `cvart' was not found.
    WARNING (SPECTRE-16462): SOAC_cvart_vspsub:Error in specification of subcircuit master. Assert is ignored.
    WARNING (SPECTRE-16460): SOAC_cvart_vbs:Specified subcircuit master `cvart' was not found.
        Further occurrences of this warning will be suppressed.
    WARNING (SPECTRE-16462): SOAC_cvart_vbs:Error in specification of subcircuit master. Assert is ignored.
        Further occurrences of this warning will be suppressed.
Notice from spectre during topology check.
    Only one connection to the following 2 nodes:
        0
        MP0.psub!
Notice from spectre during initial setup.
    Multithreading is disabled due to the size of the design being too small.


Netlist title:
        // Generated for: spectre


Global user options:
         psfversion = 1.4.0
            vabstol = 1e-06
            iabstol = 1e-12
               temp = 27
           homotopy = 5
              limit = delta
         compatible = spice2
               gmin = 1e-12
             rforce = 1
           maxnotes = 5
           maxwarns = 5
             digits = 5
               cols = 80
             pivrel = 0.001
           sensfile = ../psf/sens.output
     checklimitdest = psf
     enable_pre_ver = yes
      ignorezerovar = yes
               save = allpub
             reltol = 0.0001
               tnom = 27
             scalem = 1
              scale = 1

Scoped user options:

Circuit inventory:
              nodes 5
            bsim3v3 1     
            isource 1     
          modp_ahdl 1     
               vcvs 1     
            vsource 2     

Analysis and control statement inventory:
                 dc 1     
               info 7     

Output statements:
             .probe 0     
           .measure 0     
               save 0     

Design checks inventory:
          paramtest 2     
             assert 175   


Notice from spectre during initial setup.
    APS enabled.
    72 warnings suppressed.

Time for parsing: CPU = 12.375 ms, elapsed = 600.316 ms.
Time accumulated: CPU = 423.172 ms, elapsed = 960.302 ms.
Peak resident memory used = 193 Mbytes.

~~~~~~~~~~~~~~~~~~~~~~
Pre-Simulation Summary
~~~~~~~~~~~~~~~~~~~~~~
   -   (APS) Multi-threading. The recommended number of threads is 1, consider adding +mt=1 on command line.
~~~~~~~~~~~~~~~~~~~~~~

******************
DC Analysis `dcOp'
******************

Notice from spectre during DC analysis `dcOp'.
    No checklimit analysis defined for asserts. A default checklimit analysis 'SpectreChecklimitAnal' has been created with all asserts enabled.


Opening the PSF file ../psf/dcOp.dc ...
Important parameter values:
    reltol = 100e-06
    abstol(V) = 1 uV
    abstol(I) = 1 pA
    temp = 27 C
    tnom = 27 C
    tempeffects = all
    gmindc = 1 pS
    rabsshort = 1 mOhm
Trying `homotopy = gmin'.
Homotopy: gmin, steps: 48

Maximum value achieved for any signal of each quantity: 
V: V(net3) = 3.3 V
I: I(V2:p) = 11.28 aA
Maximum value of each quantity, excluding Verilog-A modules or dangling current sources:
V: V(net4) = 1.8 V
I: I(V2:p) = 11.28 aA
Convergence achieved in 390 iterations.
DC simulation time: CPU = 88.606 ms, elapsed = 92.5319 ms.
Total time required for dc analysis `dcOp': CPU = 88.785 ms, elapsed = 92.7012 ms, util. = 95.8%.
Time accumulated: CPU = 536.231 ms, elapsed = 1.07799 s.
Peak resident memory used = 202 Mbytes.

dcOpInfo: writing operating point information to rawfile.

Opening the PSF file ../psf/dcOpInfo.info ...
modelParameter: writing model parameter values to rawfile.

Opening the PSF file ../psf/modelParameter.info ...
element: writing instance parameter values to rawfile.

Opening the PSF file ../psf/element.info ...
outputParameter: writing output parameter values to rawfile.

Opening the PSF file ../psf/outputParameter.info ...
designParamVals: writing netlist parameters to rawfile.

Opening the PSFASCII file ../psf/designParamVals.info ...
primitives: writing primitives to rawfile.

Opening the PSFASCII file ../psf/primitives.info.primitives ...
subckts: writing subcircuits to rawfile.

Opening the PSFASCII file ../psf/subckts.info.subckts ...
Licensing Information:
Lic Summary:
[17:46:22.455994] Cdslmd servers:3000@lic08.ug.kth.se:29000@lic06.ug.kth.se
[17:46:22.456048] Feature usage summary:
[17:46:22.456050] Virtuoso_Multi_mode_Simulation


Aggregate audit (5:46:22 PM, Mon Mar 16, 2026):
Time used: CPU = 560 ms, elapsed = 1.11 s, util. = 50.4%.
Time spent in licensing: elapsed = 52.7 ms.
Peak memory used = 203 Mbytes.
Simulation started at: 5:46:21 PM, Mon Mar 16, 2026, ended at: 5:46:22 PM, Mon Mar 16, 2026, with elapsed time (wall clock): 1.11 s.
spectre completes with 0 errors, 17 warnings, and 7 notices.


********* LOG ENDS **************
**                             **
**                             **
********* LOG STARTS ************



Spectre (R) Circuit Simulator
Version 24.1.0.288.isr5 64bit -- 3 Apr 2025
Copyright (C) 1989-2025 Cadence Design Systems, Inc. All rights reserved worldwide. Cadence and Spectre are registered trademarks of Cadence Design Systems, Inc. All others are the property of their respective holders.

Includes RSA BSAFE(R) Cryptographic or Security Protocol Software from RSA Security, Inc.

User: davidevi   Host: il2244vt26_davidevi   HostID: 11AC2C00   PID: 467854
Memory  available: 3.0748 TB  physical: 3.2467 TB
Linux   : Rocky Linux release 8.10 (Green Obsidian)
CPU Type: Intel(R) Xeon(R) CPU E7-8857 v2 @ 3.00GHz
        Socket: Processors [Frequency]
        0:       0 [2700.0],  1 [2999.9],  2 [3600.0],  3 [2800.0],  4 [2900.0]
                 5 [2999.9],  6 [2500.0],  7 [3600.0],  8 [3600.0],  9 [3600.0]
                10 [2999.9], 11 [2999.7]
        1:      12 [2999.9], 13 [3300.0], 14 [2700.0], 15 [2800.0], 16 [2900.0]
                17 [3600.0], 18 [3600.0], 19 [2999.9], 20 [3600.0], 21 [2999.9]
                22 [2999.9], 23 [3600.0]
        2:      24 [3100.0], 25 [3450.6], 26 [2600.0], 27 [3600.0], 28 [2600.0]
                29 [3600.0], 30 [3600.0], 31 [3600.0], 32 [3399.9], 33 [1200.0]
                34 [3500.0], 35 [3402.9]
        3:      36 [3600.0], 37 [3600.0], 38 [2999.9], 39 [3600.0], 40 [2999.9]
                41 [2999.9], 42 [3300.0], 43 [2400.0], 44 [2600.0], 45 [2900.0]
                46 [3600.0], 47 [3600.0]
        
System load averages (1min, 5min, 15min) : 18.2 %, 15.1 %, 14.2 %
HPC is enabled


Simulating `input.scs' on il2244vt26_davidevi at 5:46:22 PM, Mon Mar 16, 2026 (process id: 467854).
Current working directory: /home/davidevi/Desktop/myproject/Sim/CHARACTERIZATION/GM_ID_PMOS/adexl/results/data/Ocean.4/3/CHARACTERIZATION:GM_ID_PMOS:1/netlist
Command line:
    /opt/tools/cadence/installs/SPECTRE241/tools/bin/spectre -64  \
        input.scs +escchars +log ../psf/spectre.out -format psfbin  \
        +rtsf -raw ../psf +aps +mt +lqtimeout 900 -maxw 5 -maxn 5  \
        +param /opt/pdk/ams/410/spectre/ams_range.lmts -env ade  \
        -ahdllibdir  \
        /home/davidevi/Desktop/myproject/Sim/CHARACTERIZATION/GM_ID_PMOS/adexl/results/data/Ocean.4/sharedData/Job12/ahdl/input.ahdlSimDB  \
        +logstatus  \
        +adespetkn=0001089D13A302B663E41FB550AF0DF415A679A322D5069144BF588C12F604E07EF416DC01A319B562BB63D354CC128545A378DB1DF01F837EDD3FDA598A4F9240FE79D15D9175FF34986BDD0AF002BA50FD7FD707E002A700AC1C8112FE4CE30EAC79D129F874D3349879D118F874D3349810695915353E5D2000003686

Simulation Id: fVnXKOJEkPz32mtf
Licensing Information:
[17:46:22.121778] Configured Lic search path (24.01-s002): 3000@lic08.ug.kth.se:29000@lic06.ug.kth.se

Licensing Information:
[17:46:22.392723] Periodic Lic check successful

Loading /opt/tools/cadence/installs/SPECTRE241/tools.lnx86/cmi/lib/64bit/5.0/libinfineon_sh.so ...
Loading /opt/tools/cadence/installs/SPECTRE241/tools.lnx86/cmi/lib/64bit/5.0/libphilips_I_sh.so ...
Loading /opt/tools/cadence/installs/SPECTRE241/tools.lnx86/cmi/lib/64bit/5.0/libphilips_sh.so ...
Loading /opt/tools/cadence/installs/SPECTRE241/tools.lnx86/cmi/lib/64bit/5.0/libsparam_sh.so ...
Loading /opt/tools/cadence/installs/SPECTRE241/tools.lnx86/cmi/lib/64bit/5.0/libstmodels_sh.so ...

Warning from spectre.
    WARNING (SPECTRE-691): This CPU processor does not support x86 advanced vector extensions instructions. This may affect math operations and slow down the simulation.

Reading file:  /home/davidevi/Desktop/myproject/Sim/CHARACTERIZATION/GM_ID_PMOS/adexl/results/data/Ocean.4/3/CHARACTERIZATION:GM_ID_PMOS:1/netlist/input.scs
Reading file:  /opt/pdk/ams/410/spectre/ams_range.lmts

Warning from spectre during read of parameter soft limits file `/opt/pdk/ams/410/spectre/ams_range.lmts', during circuit read-in.
    WARNING (SPECTRE-8360): line 1511: `ac' is an undefined primitive device.
    WARNING (SPECTRE-8360): line 1512: `ac' is an undefined primitive device.
    WARNING (SPECTRE-8360): line 1513: `ac' is an undefined primitive device.
    WARNING (SPECTRE-8360): line 1514: `ac' is an undefined primitive device.
    WARNING (SPECTRE-8360): line 1515: `ac' is an undefined primitive device.
        Further occurrences of this warning will be suppressed.

Reading file:  /opt/tools/cadence/installs/SPECTRE241/tools.lnx86/spectre/etc/configs/spectre.cfg
Reading file:  /opt/pdk/ams/410/spectre/c35/soac/soac.scs
Reading file:  /opt/pdk/ams/410/spectre/c35/soac/processOption.scs
Reading file:  /opt/pdk/ams/410/spectre/c35/soac/process.scs
Reading file:  /opt/pdk/ams/410/spectre/c35/soac/soac.va

Warning from spectre during AHDL read-in.
    WARNING (VACOMP-2435): The environment variable CDS_AHDLCMI_ENABLE is no longer supported. Therefore, the simulator will use the default compiled C code flow.

Reading link:  /opt/tools/cadence/installs/SPECTRE241/tools.lnx86/spectre/etc/ahdl/constants.h
Reading file:  /opt/tools/cadence/installs/SPECTRE241/tools.lnx86/spectre/etc/ahdl/constants.vams
Reading link:  /opt/tools/cadence/installs/SPECTRE241/tools.lnx86/spectre/etc/ahdl/discipline.h
Reading file:  /opt/tools/cadence/installs/SPECTRE241/tools.lnx86/spectre/etc/ahdl/disciplines.vams
Reading file:  /opt/pdk/ams/410/spectre/c35/processOption/C35B4C3.scs
Reading file:  /opt/pdk/ams/410/spectre/c35/soac/cmos53.scs
Reading file:  /opt/pdk/ams/410/spectre/c35/soac/res.scs
Reading file:  /opt/pdk/ams/410/spectre/c35/soac/cap.scs
Reading file:  /opt/pdk/ams/410/spectre/c35/soac/bip.scs
Reading file:  /opt/pdk/ams/410/spectre/c35/soac/ind.scs
Reading file:  /opt/pdk/ams/410/spectre/c35/soac/esddiode.scs
Time for NDB Parsing: CPU = 146.587 ms, elapsed = 276.94 ms.
Time accumulated: CPU = 338.273 ms, elapsed = 276.949 ms.
Peak resident memory used = 175 Mbytes.

Existing shared object for module modp_ahdl is up to date.
Installed compiled interface for modp_ahdl.
Time for Elaboration: CPU = 29.837 ms, elapsed = 30.257 ms.
Time accumulated: CPU = 368.255 ms, elapsed = 307.35 ms.
Peak resident memory used = 185 Mbytes.


Notice from spectre during hierarchy flattening.
    The value 'psf' specified for the 'checklimitdest' option will no longer be supported in future releases. Use 'spectre -h' to see other recommended values for the 'checklimitdest' option.


*****************************************************************************************
* 
* INFO: AMS_processOption = C35B4C3
* 
* INFO: Valid Modules  PIP VG5 HIRES
* 
*****************************************************************************************


Time for EDB Visiting: CPU = 2.831 ms, elapsed = 2.83098 ms.
Time accumulated: CPU = 371.208 ms, elapsed = 310.303 ms.
Peak resident memory used = 187 Mbytes.

Loading /opt/tools/cadence/installs/SPECTRE241/tools.lnx86/mdl/lib/64bit/libSpectreEH_sh.so ...

Warning from spectre during initial setup.
    WARNING (SPECTRE-16460): SOAC_cvarm_vspsub:Specified subcircuit master `cvarm' was not found.
    WARNING (SPECTRE-16462): SOAC_cvarm_vspsub:Error in specification of subcircuit master. Assert is ignored.
    WARNING (SPECTRE-16460): SOAC_cvarm_vbs:Specified subcircuit master `cvarm' was not found.
    WARNING (SPECTRE-16462): SOAC_cvarm_vbs:Error in specification of subcircuit master. Assert is ignored.
    WARNING (SPECTRE-16460): SOAC_cvarm_vgb:Specified subcircuit master `cvarm' was not found.
    WARNING (SPECTRE-16462): SOAC_cvarm_vgb:Error in specification of subcircuit master. Assert is ignored.
    WARNING (SPECTRE-16460): SOAC_cvart_vspsub:Specified subcircuit master `cvart' was not found.
    WARNING (SPECTRE-16462): SOAC_cvart_vspsub:Error in specification of subcircuit master. Assert is ignored.
    WARNING (SPECTRE-16460): SOAC_cvart_vbs:Specified subcircuit master `cvart' was not found.
        Further occurrences of this warning will be suppressed.
    WARNING (SPECTRE-16462): SOAC_cvart_vbs:Error in specification of subcircuit master. Assert is ignored.
        Further occurrences of this warning will be suppressed.
Notice from spectre during topology check.
    Only one connection to the following 2 nodes:
        0
        MP0.psub!
Notice from spectre during initial setup.
    Multithreading is disabled due to the size of the design being too small.


Netlist title:
        // Generated for: spectre


Global user options:
         psfversion = 1.4.0
            vabstol = 1e-06
            iabstol = 1e-12
               temp = 27
           homotopy = 5
              limit = delta
         compatible = spice2
               gmin = 1e-12
             rforce = 1
           maxnotes = 5
           maxwarns = 5
             digits = 5
               cols = 80
             pivrel = 0.001
           sensfile = ../psf/sens.output
     checklimitdest = psf
     enable_pre_ver = yes
      ignorezerovar = yes
               save = allpub
             reltol = 0.0001
               tnom = 27
             scalem = 1
              scale = 1

Scoped user options:

Circuit inventory:
              nodes 5
            bsim3v3 1     
            isource 1     
          modp_ahdl 1     
               vcvs 1     
            vsource 2     

Analysis and control statement inventory:
                 dc 1     
               info 7     

Output statements:
             .probe 0     
           .measure 0     
               save 0     

Design checks inventory:
          paramtest 2     
             assert 175   


Notice from spectre during initial setup.
    APS enabled.
    72 warnings suppressed.

Time for parsing: CPU = 11.918 ms, elapsed = 532.408 ms.
Time accumulated: CPU = 383.233 ms, elapsed = 842.817 ms.
Peak resident memory used = 193 Mbytes.

~~~~~~~~~~~~~~~~~~~~~~
Pre-Simulation Summary
~~~~~~~~~~~~~~~~~~~~~~
   -   (APS) Multi-threading. The recommended number of threads is 1, consider adding +mt=1 on command line.
~~~~~~~~~~~~~~~~~~~~~~

******************
DC Analysis `dcOp'
******************

Notice from spectre during DC analysis `dcOp'.
    No checklimit analysis defined for asserts. A default checklimit analysis 'SpectreChecklimitAnal' has been created with all asserts enabled.


Opening the PSF file ../psf/dcOp.dc ...
Important parameter values:
    reltol = 100e-06
    abstol(V) = 1 uV
    abstol(I) = 1 pA
    temp = 27 C
    tnom = 27 C
    tempeffects = all
    gmindc = 1 pS
    rabsshort = 1 mOhm
Trying `homotopy = gmin'.
Homotopy: gmin, steps: 47

Maximum value achieved for any signal of each quantity: 
V: V(net3) = 3.3 V
I: I(V2:p) = 11.28 aA
Maximum value of each quantity, excluding Verilog-A modules or dangling current sources:
V: V(net4) = 1.8 V
I: I(V2:p) = 11.28 aA
Convergence achieved in 382 iterations.
DC simulation time: CPU = 77.08 ms, elapsed = 80.421 ms.
Total time required for dc analysis `dcOp': CPU = 77.222 ms, elapsed = 80.5519 ms, util. = 95.9%.
Time accumulated: CPU = 482.158 ms, elapsed = 945.406 ms.
Peak resident memory used = 201 Mbytes.

dcOpInfo: writing operating point information to rawfile.

Opening the PSF file ../psf/dcOpInfo.info ...
modelParameter: writing model parameter values to rawfile.

Opening the PSF file ../psf/modelParameter.info ...
element: writing instance parameter values to rawfile.

Opening the PSF file ../psf/element.info ...
outputParameter: writing output parameter values to rawfile.

Opening the PSF file ../psf/outputParameter.info ...
designParamVals: writing netlist parameters to rawfile.

Opening the PSFASCII file ../psf/designParamVals.info ...
primitives: writing primitives to rawfile.

Opening the PSFASCII file ../psf/primitives.info.primitives ...
subckts: writing subcircuits to rawfile.

Opening the PSFASCII file ../psf/subckts.info.subckts ...
Licensing Information:
Lic Summary:
[17:46:23.211522] Cdslmd servers:3000@lic08.ug.kth.se:29000@lic06.ug.kth.se
[17:46:23.211553] Feature usage summary:
[17:46:23.211554] Virtuoso_Multi_mode_Simulation


Aggregate audit (5:46:23 PM, Mon Mar 16, 2026):
Time used: CPU = 503 ms, elapsed = 973 ms, util. = 51.6%.
Time spent in licensing: elapsed = 47 ms.
Peak memory used = 203 Mbytes.
Simulation started at: 5:46:22 PM, Mon Mar 16, 2026, ended at: 5:46:23 PM, Mon Mar 16, 2026, with elapsed time (wall clock): 973 ms.
spectre completes with 0 errors, 17 warnings, and 7 notices.


********* LOG ENDS **************
**                             **
**                             **
********* LOG STARTS ************



Spectre (R) Circuit Simulator
Version 24.1.0.288.isr5 64bit -- 3 Apr 2025
Copyright (C) 1989-2025 Cadence Design Systems, Inc. All rights reserved worldwide. Cadence and Spectre are registered trademarks of Cadence Design Systems, Inc. All others are the property of their respective holders.

Includes RSA BSAFE(R) Cryptographic or Security Protocol Software from RSA Security, Inc.

User: davidevi   Host: il2244vt26_davidevi   HostID: 11AC2C00   PID: 467853
Memory  available: 3.0748 TB  physical: 3.2467 TB
Linux   : Rocky Linux release 8.10 (Green Obsidian)
CPU Type: Intel(R) Xeon(R) CPU E7-8857 v2 @ 3.00GHz
        Socket: Processors [Frequency]
        0:       0 [2700.0],  1 [2999.9],  2 [3600.0],  3 [2800.0],  4 [2900.0]
                 5 [2999.9],  6 [2500.0],  7 [3600.0],  8 [3600.0],  9 [3600.0]
                10 [2999.9], 11 [2999.9]
        1:      12 [3600.0], 13 [3300.0], 14 [2700.0], 15 [2800.0], 16 [2900.0]
                17 [3600.0], 18 [3600.0], 19 [2999.9], 20 [2999.9], 21 [3600.0]
                22 [3600.0], 23 [3600.0]
        2:      24 [3399.9], 25 [3399.9], 26 [2600.0], 27 [3600.0], 28 [2600.0]
                29 [3600.0], 30 [1200.0], 31 [3600.0], 32 [3600.0], 33 [1200.0]
                34 [1200.0], 35 [3399.9]
        3:      36 [3600.0], 37 [2999.9], 38 [2999.9], 39 [3600.0], 40 [2999.9]
                41 [2999.9], 42 [3300.0], 43 [1200.0], 44 [2600.0], 45 [2900.0]
                46 [3600.0], 47 [1200.0]
        
System load averages (1min, 5min, 15min) : 18.2 %, 15.1 %, 14.2 %
HPC is enabled


Simulating `input.scs' on il2244vt26_davidevi at 5:46:22 PM, Mon Mar 16, 2026 (process id: 467853).
Current working directory: /home/davidevi/Desktop/myproject/Sim/CHARACTERIZATION/GM_ID_PMOS/adexl/results/data/Ocean.4/4/CHARACTERIZATION:GM_ID_PMOS:1/netlist
Command line:
    /opt/tools/cadence/installs/SPECTRE241/tools/bin/spectre -64  \
        input.scs +escchars +log ../psf/spectre.out -format psfbin  \
        +rtsf -raw ../psf +aps +mt +lqtimeout 900 -maxw 5 -maxn 5  \
        +param /opt/pdk/ams/410/spectre/ams_range.lmts -env ade  \
        -ahdllibdir  \
        /home/davidevi/Desktop/myproject/Sim/CHARACTERIZATION/GM_ID_PMOS/adexl/results/data/Ocean.4/sharedData/Job11/ahdl/input.ahdlSimDB  \
        +logstatus  \
        +adespetkn=0001089D13A302B663E41FB550AF0DF415A679A322D5069144BF588C12F604E07EF416DC01A319B562BB63D354CC128545A378DB1DF01F837EDD3FDA598A4F9240FE79D15D9175FF34986BDD0AF002BA50FD7FD707E002A700AC1C831CF642EB0EAE79D12FF874D3349879D118F874D3349810695915353E5D2000003697

Simulation Id: fVnXKOJEkPz32mtf
Licensing Information:
[17:46:22.121778] Configured Lic search path (24.01-s002): 3000@lic08.ug.kth.se:29000@lic06.ug.kth.se

Licensing Information:
[17:46:22.432720] Periodic Lic check successful

Loading /opt/tools/cadence/installs/SPECTRE241/tools.lnx86/cmi/lib/64bit/5.0/libinfineon_sh.so ...
Loading /opt/tools/cadence/installs/SPECTRE241/tools.lnx86/cmi/lib/64bit/5.0/libphilips_I_sh.so ...
Loading /opt/tools/cadence/installs/SPECTRE241/tools.lnx86/cmi/lib/64bit/5.0/libphilips_sh.so ...
Loading /opt/tools/cadence/installs/SPECTRE241/tools.lnx86/cmi/lib/64bit/5.0/libsparam_sh.so ...
Loading /opt/tools/cadence/installs/SPECTRE241/tools.lnx86/cmi/lib/64bit/5.0/libstmodels_sh.so ...

Warning from spectre.
    WARNING (SPECTRE-691): This CPU processor does not support x86 advanced vector extensions instructions. This may affect math operations and slow down the simulation.

Reading file:  /home/davidevi/Desktop/myproject/Sim/CHARACTERIZATION/GM_ID_PMOS/adexl/results/data/Ocean.4/4/CHARACTERIZATION:GM_ID_PMOS:1/netlist/input.scs
Reading file:  /opt/pdk/ams/410/spectre/ams_range.lmts

Warning from spectre during read of parameter soft limits file `/opt/pdk/ams/410/spectre/ams_range.lmts', during circuit read-in.
    WARNING (SPECTRE-8360): line 1511: `ac' is an undefined primitive device.
    WARNING (SPECTRE-8360): line 1512: `ac' is an undefined primitive device.
    WARNING (SPECTRE-8360): line 1513: `ac' is an undefined primitive device.
    WARNING (SPECTRE-8360): line 1514: `ac' is an undefined primitive device.
    WARNING (SPECTRE-8360): line 1515: `ac' is an undefined primitive device.
        Further occurrences of this warning will be suppressed.

Reading file:  /opt/tools/cadence/installs/SPECTRE241/tools.lnx86/spectre/etc/configs/spectre.cfg
Reading file:  /opt/pdk/ams/410/spectre/c35/soac/soac.scs
Reading file:  /opt/pdk/ams/410/spectre/c35/soac/processOption.scs
Reading file:  /opt/pdk/ams/410/spectre/c35/soac/process.scs
Reading file:  /opt/pdk/ams/410/spectre/c35/soac/soac.va

Warning from spectre during AHDL read-in.
    WARNING (VACOMP-2435): The environment variable CDS_AHDLCMI_ENABLE is no longer supported. Therefore, the simulator will use the default compiled C code flow.

Reading link:  /opt/tools/cadence/installs/SPECTRE241/tools.lnx86/spectre/etc/ahdl/constants.h
Reading file:  /opt/tools/cadence/installs/SPECTRE241/tools.lnx86/spectre/etc/ahdl/constants.vams
Reading link:  /opt/tools/cadence/installs/SPECTRE241/tools.lnx86/spectre/etc/ahdl/discipline.h
Reading file:  /opt/tools/cadence/installs/SPECTRE241/tools.lnx86/spectre/etc/ahdl/disciplines.vams
Reading file:  /opt/pdk/ams/410/spectre/c35/processOption/C35B4C3.scs
Reading file:  /opt/pdk/ams/410/spectre/c35/soac/cmos53.scs
Reading file:  /opt/pdk/ams/410/spectre/c35/soac/res.scs
Reading file:  /opt/pdk/ams/410/spectre/c35/soac/cap.scs
Reading file:  /opt/pdk/ams/410/spectre/c35/soac/bip.scs
Reading file:  /opt/pdk/ams/410/spectre/c35/soac/ind.scs
Reading file:  /opt/pdk/ams/410/spectre/c35/soac/esddiode.scs
Time for NDB Parsing: CPU = 164.839 ms, elapsed = 317.503 ms.
Time accumulated: CPU = 359.262 ms, elapsed = 317.505 ms.
Peak resident memory used = 175 Mbytes.

Existing shared object for module modp_ahdl is up to date.
Installed compiled interface for modp_ahdl.
Time for Elaboration: CPU = 32.267 ms, elapsed = 32.8031 ms.
Time accumulated: CPU = 391.694 ms, elapsed = 350.473 ms.
Peak resident memory used = 185 Mbytes.


Notice from spectre during hierarchy flattening.
    The value 'psf' specified for the 'checklimitdest' option will no longer be supported in future releases. Use 'spectre -h' to see other recommended values for the 'checklimitdest' option.


*****************************************************************************************
* 
* INFO: AMS_processOption = C35B4C3
* 
* INFO: Valid Modules  PIP VG5 HIRES
* 
*****************************************************************************************


Time for EDB Visiting: CPU = 2.839 ms, elapsed = 2.8379 ms.
Time accumulated: CPU = 394.718 ms, elapsed = 353.496 ms.
Peak resident memory used = 187 Mbytes.

Loading /opt/tools/cadence/installs/SPECTRE241/tools.lnx86/mdl/lib/64bit/libSpectreEH_sh.so ...

Warning from spectre during initial setup.
    WARNING (SPECTRE-16460): SOAC_cvarm_vspsub:Specified subcircuit master `cvarm' was not found.
    WARNING (SPECTRE-16462): SOAC_cvarm_vspsub:Error in specification of subcircuit master. Assert is ignored.
    WARNING (SPECTRE-16460): SOAC_cvarm_vbs:Specified subcircuit master `cvarm' was not found.
    WARNING (SPECTRE-16462): SOAC_cvarm_vbs:Error in specification of subcircuit master. Assert is ignored.
    WARNING (SPECTRE-16460): SOAC_cvarm_vgb:Specified subcircuit master `cvarm' was not found.
    WARNING (SPECTRE-16462): SOAC_cvarm_vgb:Error in specification of subcircuit master. Assert is ignored.
    WARNING (SPECTRE-16460): SOAC_cvart_vspsub:Specified subcircuit master `cvart' was not found.
    WARNING (SPECTRE-16462): SOAC_cvart_vspsub:Error in specification of subcircuit master. Assert is ignored.
    WARNING (SPECTRE-16460): SOAC_cvart_vbs:Specified subcircuit master `cvart' was not found.
        Further occurrences of this warning will be suppressed.
    WARNING (SPECTRE-16462): SOAC_cvart_vbs:Error in specification of subcircuit master. Assert is ignored.
        Further occurrences of this warning will be suppressed.
Notice from spectre during topology check.
    Only one connection to the following 2 nodes:
        0
        MP0.psub!
Notice from spectre during initial setup.
    Multithreading is disabled due to the size of the design being too small.


Netlist title:
        // Generated for: spectre


Global user options:
         psfversion = 1.4.0
            vabstol = 1e-06
            iabstol = 1e-12
               temp = 27
           homotopy = 5
              limit = delta
         compatible = spice2
               gmin = 1e-12
             rforce = 1
           maxnotes = 5
           maxwarns = 5
             digits = 5
               cols = 80
             pivrel = 0.001
           sensfile = ../psf/sens.output
     checklimitdest = psf
     enable_pre_ver = yes
      ignorezerovar = yes
               save = allpub
             reltol = 0.0001
               tnom = 27
             scalem = 1
              scale = 1

Scoped user options:

Circuit inventory:
              nodes 5
            bsim3v3 1     
            isource 1     
          modp_ahdl 1     
               vcvs 1     
            vsource 2     

Analysis and control statement inventory:
                 dc 1     
               info 7     

Output statements:
             .probe 0     
           .measure 0     
               save 0     

Design checks inventory:
          paramtest 2     
             assert 175   


Notice from spectre during initial setup.
    APS enabled.
    72 warnings suppressed.

Time for parsing: CPU = 12.188 ms, elapsed = 602.872 ms.
Time accumulated: CPU = 407.051 ms, elapsed = 956.513 ms.
Peak resident memory used = 193 Mbytes.

~~~~~~~~~~~~~~~~~~~~~~
Pre-Simulation Summary
~~~~~~~~~~~~~~~~~~~~~~
   -   (APS) Multi-threading. The recommended number of threads is 1, consider adding +mt=1 on command line.
~~~~~~~~~~~~~~~~~~~~~~

******************
DC Analysis `dcOp'
******************

Notice from spectre during DC analysis `dcOp'.
    No checklimit analysis defined for asserts. A default checklimit analysis 'SpectreChecklimitAnal' has been created with all asserts enabled.


Opening the PSF file ../psf/dcOp.dc ...
Important parameter values:
    reltol = 100e-06
    abstol(V) = 1 uV
    abstol(I) = 1 pA
    temp = 27 C
    tnom = 27 C
    tempeffects = all
    gmindc = 1 pS
    rabsshort = 1 mOhm
Trying `homotopy = gmin'.
Homotopy: gmin, steps: 52

Maximum value achieved for any signal of each quantity: 
V: V(net3) = 3.3 V
I: I(V2:p) = 11.27 aA
Maximum value of each quantity, excluding Verilog-A modules or dangling current sources:
V: V(net4) = 1.8 V
I: I(V2:p) = 11.27 aA
Convergence achieved in 409 iterations.
DC simulation time: CPU = 86.79 ms, elapsed = 89.932 ms.
Total time required for dc analysis `dcOp': CPU = 86.964 ms, elapsed = 90.0981 ms, util. = 96.5%.
Time accumulated: CPU = 516.372 ms, elapsed = 1.06961 s.
Peak resident memory used = 202 Mbytes.

dcOpInfo: writing operating point information to rawfile.

Opening the PSF file ../psf/dcOpInfo.info ...
modelParameter: writing model parameter values to rawfile.

Opening the PSF file ../psf/modelParameter.info ...
element: writing instance parameter values to rawfile.

Opening the PSF file ../psf/element.info ...
outputParameter: writing output parameter values to rawfile.

Opening the PSF file ../psf/outputParameter.info ...
designParamVals: writing netlist parameters to rawfile.

Opening the PSFASCII file ../psf/designParamVals.info ...
primitives: writing primitives to rawfile.

Opening the PSFASCII file ../psf/primitives.info.primitives ...
subckts: writing subcircuits to rawfile.

Opening the PSFASCII file ../psf/subckts.info.subckts ...
Licensing Information:
Lic Summary:
[17:46:23.350898] Cdslmd servers:3000@lic08.ug.kth.se:29000@lic06.ug.kth.se
[17:46:23.350944] Feature usage summary:
[17:46:23.350945] Virtuoso_Multi_mode_Simulation


Aggregate audit (5:46:23 PM, Mon Mar 16, 2026):
Time used: CPU = 539 ms, elapsed = 1.1 s, util. = 49%.
Time spent in licensing: elapsed = 50.9 ms.
Peak memory used = 203 Mbytes.
Simulation started at: 5:46:22 PM, Mon Mar 16, 2026, ended at: 5:46:23 PM, Mon Mar 16, 2026, with elapsed time (wall clock): 1.1 s.
spectre completes with 0 errors, 17 warnings, and 7 notices.


********* LOG ENDS **************
**                             **
**                             **
********* LOG STARTS ************



Spectre (R) Circuit Simulator
Version 24.1.0.288.isr5 64bit -- 3 Apr 2025
Copyright (C) 1989-2025 Cadence Design Systems, Inc. All rights reserved worldwide. Cadence and Spectre are registered trademarks of Cadence Design Systems, Inc. All others are the property of their respective holders.

Includes RSA BSAFE(R) Cryptographic or Security Protocol Software from RSA Security, Inc.

User: davidevi   Host: il2244vt26_davidevi   HostID: 11AC2C00   PID: 468070
Memory  available: 3.0747 TB  physical: 3.2467 TB
Linux   : Rocky Linux release 8.10 (Green Obsidian)
CPU Type: Intel(R) Xeon(R) CPU E7-8857 v2 @ 3.00GHz
        Socket: Processors [Frequency]
        0:       0 [1200.0],  1 [2999.9],  2 [3600.0],  3 [3600.0],  4 [3600.0]
                 5 [2999.9],  6 [2000.0],  7 [2400.0],  8 [3100.0],  9 [3000.0]
                10 [2999.9], 11 [2600.0]
        1:      12 [3600.0], 13 [3600.0], 14 [3400.0], 15 [2999.9], 16 [3000.0]
                17 [3600.0], 18 [3600.0], 19 [2999.9], 20 [3600.0], 21 [3600.0]
                22 [2300.0], 23 [3400.0]
        2:      24 [3399.9], 25 [3408.9], 26 [1200.0], 27 [1200.0], 28 [1200.0]
                29 [1200.0], 30 [3408.9], 31 [1200.0], 32 [1200.0], 33 [3000.0]
                34 [2800.0], 35 [2400.0]
        3:      36 [2999.9], 37 [3600.0], 38 [3100.0], 39 [3600.0], 40 [3600.0]
                41 [2999.9], 42 [3300.0], 43 [1200.0], 44 [3600.0], 45 [1200.0]
                46 [3600.0], 47 [3300.0]
        
System load averages (1min, 5min, 15min) : 18.2 %, 15.1 %, 14.2 %
HPC is enabled


Simulating `input.scs' on il2244vt26_davidevi at 5:46:22 PM, Mon Mar 16, 2026 (process id: 468070).
Current working directory: /home/davidevi/Desktop/myproject/Sim/CHARACTERIZATION/GM_ID_PMOS/adexl/results/data/Ocean.4/5/CHARACTERIZATION:GM_ID_PMOS:1/netlist
Command line:
    /opt/tools/cadence/installs/SPECTRE241/tools/bin/spectre -64  \
        input.scs +escchars +log ../psf/spectre.out -format psfbin  \
        +rtsf -raw ../psf +aps +mt +lqtimeout 900 -maxw 5 -maxn 5  \
        +param /opt/pdk/ams/410/spectre/ams_range.lmts -env ade  \
        -ahdllibdir  \
        /home/davidevi/Desktop/myproject/Sim/CHARACTERIZATION/GM_ID_PMOS/adexl/results/data/Ocean.4/sharedData/Job10/ahdl/input.ahdlSimDB  \
        +logstatus  \
        +adespetkn=0001089D13A302B663E41FB550AF0DF415A679A322D5069144BF588C12F604E07EF416DC01A319B562BB63D354CC128545A378DB1DF01F837EDD3FDA598A4F9240FE79D15D9175FF34986BDD0AF002BA50FD7FD707E002A700AC1C831BF845E50EAE79D12AF874D3349879D118F874D3349810695915353E5D2000003689

Simulation Id: fVnXKOJEkPz32mtf
Licensing Information:
[17:46:22.121778] Configured Lic search path (24.01-s002): 3000@lic08.ug.kth.se:29000@lic06.ug.kth.se

Licensing Information:
[17:46:22.423424] Periodic Lic check successful

Loading /opt/tools/cadence/installs/SPECTRE241/tools.lnx86/cmi/lib/64bit/5.0/libinfineon_sh.so ...
Loading /opt/tools/cadence/installs/SPECTRE241/tools.lnx86/cmi/lib/64bit/5.0/libphilips_I_sh.so ...
Loading /opt/tools/cadence/installs/SPECTRE241/tools.lnx86/cmi/lib/64bit/5.0/libphilips_sh.so ...
Loading /opt/tools/cadence/installs/SPECTRE241/tools.lnx86/cmi/lib/64bit/5.0/libsparam_sh.so ...
Loading /opt/tools/cadence/installs/SPECTRE241/tools.lnx86/cmi/lib/64bit/5.0/libstmodels_sh.so ...

Warning from spectre.
    WARNING (SPECTRE-691): This CPU processor does not support x86 advanced vector extensions instructions. This may affect math operations and slow down the simulation.

Reading file:  /home/davidevi/Desktop/myproject/Sim/CHARACTERIZATION/GM_ID_PMOS/adexl/results/data/Ocean.4/5/CHARACTERIZATION:GM_ID_PMOS:1/netlist/input.scs
Reading file:  /opt/pdk/ams/410/spectre/ams_range.lmts

Warning from spectre during read of parameter soft limits file `/opt/pdk/ams/410/spectre/ams_range.lmts', during circuit read-in.
    WARNING (SPECTRE-8360): line 1511: `ac' is an undefined primitive device.
    WARNING (SPECTRE-8360): line 1512: `ac' is an undefined primitive device.
    WARNING (SPECTRE-8360): line 1513: `ac' is an undefined primitive device.
    WARNING (SPECTRE-8360): line 1514: `ac' is an undefined primitive device.
    WARNING (SPECTRE-8360): line 1515: `ac' is an undefined primitive device.
        Further occurrences of this warning will be suppressed.

Reading file:  /opt/tools/cadence/installs/SPECTRE241/tools.lnx86/spectre/etc/configs/spectre.cfg
Reading file:  /opt/pdk/ams/410/spectre/c35/soac/soac.scs
Reading file:  /opt/pdk/ams/410/spectre/c35/soac/processOption.scs
Reading file:  /opt/pdk/ams/410/spectre/c35/soac/process.scs
Reading file:  /opt/pdk/ams/410/spectre/c35/soac/soac.va

Warning from spectre during AHDL read-in.
    WARNING (VACOMP-2435): The environment variable CDS_AHDLCMI_ENABLE is no longer supported. Therefore, the simulator will use the default compiled C code flow.

Reading link:  /opt/tools/cadence/installs/SPECTRE241/tools.lnx86/spectre/etc/ahdl/constants.h
Reading file:  /opt/tools/cadence/installs/SPECTRE241/tools.lnx86/spectre/etc/ahdl/constants.vams
Reading link:  /opt/tools/cadence/installs/SPECTRE241/tools.lnx86/spectre/etc/ahdl/discipline.h
Reading file:  /opt/tools/cadence/installs/SPECTRE241/tools.lnx86/spectre/etc/ahdl/disciplines.vams
Reading file:  /opt/pdk/ams/410/spectre/c35/processOption/C35B4C3.scs
Reading file:  /opt/pdk/ams/410/spectre/c35/soac/cmos53.scs
Reading file:  /opt/pdk/ams/410/spectre/c35/soac/res.scs
Reading file:  /opt/pdk/ams/410/spectre/c35/soac/cap.scs
Reading file:  /opt/pdk/ams/410/spectre/c35/soac/bip.scs
Reading file:  /opt/pdk/ams/410/spectre/c35/soac/ind.scs
Reading file:  /opt/pdk/ams/410/spectre/c35/soac/esddiode.scs
Time for NDB Parsing: CPU = 159.61 ms, elapsed = 321.323 ms.
Time accumulated: CPU = 368.7 ms, elapsed = 321.326 ms.
Peak resident memory used = 175 Mbytes.

Existing shared object for module modp_ahdl is up to date.
Installed compiled interface for modp_ahdl.
Time for Elaboration: CPU = 30.656 ms, elapsed = 31.3389 ms.
Time accumulated: CPU = 399.521 ms, elapsed = 352.83 ms.
Peak resident memory used = 185 Mbytes.


Notice from spectre during hierarchy flattening.
    The value 'psf' specified for the 'checklimitdest' option will no longer be supported in future releases. Use 'spectre -h' to see other recommended values for the 'checklimitdest' option.


*****************************************************************************************
* 
* INFO: AMS_processOption = C35B4C3
* 
* INFO: Valid Modules  PIP VG5 HIRES
* 
*****************************************************************************************


Time for EDB Visiting: CPU = 2.742 ms, elapsed = 2.74205 ms.
Time accumulated: CPU = 402.409 ms, elapsed = 355.717 ms.
Peak resident memory used = 188 Mbytes.

Loading /opt/tools/cadence/installs/SPECTRE241/tools.lnx86/mdl/lib/64bit/libSpectreEH_sh.so ...

Warning from spectre during initial setup.
    WARNING (SPECTRE-16460): SOAC_cvarm_vspsub:Specified subcircuit master `cvarm' was not found.
    WARNING (SPECTRE-16462): SOAC_cvarm_vspsub:Error in specification of subcircuit master. Assert is ignored.
    WARNING (SPECTRE-16460): SOAC_cvarm_vbs:Specified subcircuit master `cvarm' was not found.
    WARNING (SPECTRE-16462): SOAC_cvarm_vbs:Error in specification of subcircuit master. Assert is ignored.
    WARNING (SPECTRE-16460): SOAC_cvarm_vgb:Specified subcircuit master `cvarm' was not found.
    WARNING (SPECTRE-16462): SOAC_cvarm_vgb:Error in specification of subcircuit master. Assert is ignored.
    WARNING (SPECTRE-16460): SOAC_cvart_vspsub:Specified subcircuit master `cvart' was not found.
    WARNING (SPECTRE-16462): SOAC_cvart_vspsub:Error in specification of subcircuit master. Assert is ignored.
    WARNING (SPECTRE-16460): SOAC_cvart_vbs:Specified subcircuit master `cvart' was not found.
        Further occurrences of this warning will be suppressed.
    WARNING (SPECTRE-16462): SOAC_cvart_vbs:Error in specification of subcircuit master. Assert is ignored.
        Further occurrences of this warning will be suppressed.
Notice from spectre during topology check.
    Only one connection to the following 2 nodes:
        0
        MP0.psub!
Notice from spectre during initial setup.
    Multithreading is disabled due to the size of the design being too small.


Netlist title:
        // Generated for: spectre


Global user options:
         psfversion = 1.4.0
            vabstol = 1e-06
            iabstol = 1e-12
               temp = 27
           homotopy = 5
              limit = delta
         compatible = spice2
               gmin = 1e-12
             rforce = 1
           maxnotes = 5
           maxwarns = 5
             digits = 5
               cols = 80
             pivrel = 0.001
           sensfile = ../psf/sens.output
     checklimitdest = psf
     enable_pre_ver = yes
      ignorezerovar = yes
               save = allpub
             reltol = 0.0001
               tnom = 27
             scalem = 1
              scale = 1

Scoped user options:

Circuit inventory:
              nodes 5
            bsim3v3 1     
            isource 1     
          modp_ahdl 1     
               vcvs 1     
            vsource 2     

Analysis and control statement inventory:
                 dc 1     
               info 7     

Output statements:
             .probe 0     
           .measure 0     
               save 0     

Design checks inventory:
          paramtest 2     
             assert 175   


Notice from spectre during initial setup.
    APS enabled.
    72 warnings suppressed.

Time for parsing: CPU = 11.716 ms, elapsed = 591.654 ms.
Time accumulated: CPU = 414.255 ms, elapsed = 947.501 ms.
Peak resident memory used = 193 Mbytes.

~~~~~~~~~~~~~~~~~~~~~~
Pre-Simulation Summary
~~~~~~~~~~~~~~~~~~~~~~
   -   (APS) Multi-threading. The recommended number of threads is 1, consider adding +mt=1 on command line.
~~~~~~~~~~~~~~~~~~~~~~

******************
DC Analysis `dcOp'
******************

Notice from spectre during DC analysis `dcOp'.
    No checklimit analysis defined for asserts. A default checklimit analysis 'SpectreChecklimitAnal' has been created with all asserts enabled.


Opening the PSF file ../psf/dcOp.dc ...
Important parameter values:
    reltol = 100e-06
    abstol(V) = 1 uV
    abstol(I) = 1 pA
    temp = 27 C
    tnom = 27 C
    tempeffects = all
    gmindc = 1 pS
    rabsshort = 1 mOhm
Trying `homotopy = gmin'.
Homotopy: gmin, steps: 55

Maximum value achieved for any signal of each quantity: 
V: V(net3) = 3.3 V
I: I(V2:p) = 11.27 aA
Maximum value of each quantity, excluding Verilog-A modules or dangling current sources:
V: V(net4) = 1.8 V
I: I(V2:p) = 11.27 aA
Convergence achieved in 429 iterations.
DC simulation time: CPU = 87.472 ms, elapsed = 90.462 ms.
Total time required for dc analysis `dcOp': CPU = 87.576 ms, elapsed = 90.5559 ms, util. = 96.7%.
Time accumulated: CPU = 523.844 ms, elapsed = 1.06057 s.
Peak resident memory used = 202 Mbytes.

dcOpInfo: writing operating point information to rawfile.

Opening the PSF file ../psf/dcOpInfo.info ...
modelParameter: writing model parameter values to rawfile.

Opening the PSF file ../psf/modelParameter.info ...
element: writing instance parameter values to rawfile.

Opening the PSF file ../psf/element.info ...
outputParameter: writing output parameter values to rawfile.

Opening the PSF file ../psf/outputParameter.info ...
designParamVals: writing netlist parameters to rawfile.

Opening the PSFASCII file ../psf/designParamVals.info ...
primitives: writing primitives to rawfile.

Opening the PSFASCII file ../psf/primitives.info.primitives ...
subckts: writing subcircuits to rawfile.

Opening the PSFASCII file ../psf/subckts.info.subckts ...
Licensing Information:
Lic Summary:
[17:46:23.324649] Cdslmd servers:3000@lic08.ug.kth.se:29000@lic06.ug.kth.se
[17:46:23.848977] Feature usage summary:
[17:46:23.848978] Virtuoso_Multi_mode_Simulation


Aggregate audit (5:46:23 PM, Mon Mar 16, 2026):
Time used: CPU = 547 ms, elapsed = 1.09 s, util. = 50%.
Time spent in licensing: elapsed = 48 ms.
Peak memory used = 203 Mbytes.
Simulation started at: 5:46:22 PM, Mon Mar 16, 2026, ended at: 5:46:23 PM, Mon Mar 16, 2026, with elapsed time (wall clock): 1.09 s.
spectre completes with 0 errors, 17 warnings, and 7 notices.


********* LOG ENDS **************
**                             **
**                             **
********* LOG STARTS ************



Spectre (R) Circuit Simulator
Version 24.1.0.288.isr5 64bit -- 3 Apr 2025
Copyright (C) 1989-2025 Cadence Design Systems, Inc. All rights reserved worldwide. Cadence and Spectre are registered trademarks of Cadence Design Systems, Inc. All others are the property of their respective holders.

Includes RSA BSAFE(R) Cryptographic or Security Protocol Software from RSA Security, Inc.

User: davidevi   Host: il2244vt26_davidevi   HostID: 11AC2C00   PID: 468314
Memory  available: 3.0746 TB  physical: 3.2467 TB
Linux   : Rocky Linux release 8.10 (Green Obsidian)
CPU Type: Intel(R) Xeon(R) CPU E7-8857 v2 @ 3.00GHz
        Socket: Processors [Frequency]
        0:       0 [3600.0],  1 [2999.9],  2 [1200.0],  3 [1500.0],  4 [2999.9]
                 5 [2999.9],  6 [2999.9],  7 [1200.0],  8 [3600.0],  9 [3600.0]
                10 [2500.0], 11 [3600.0]
        1:      12 [2999.9], 13 [3600.0], 14 [1200.0], 15 [3600.0], 16 [3100.0]
                17 [3600.0], 18 [3600.0], 19 [2999.9], 20 [3600.0], 21 [2999.9]
                22 [3100.0], 23 [1500.0]
        2:      24 [1200.0], 25 [3399.9], 26 [1700.0], 27 [3399.9], 28 [2800.0]
                29 [1200.0], 30 [2700.0], 31 [2500.0], 32 [3399.9], 33 [1200.0]
                34 [1200.0], 35 [1200.0]
        3:      36 [3600.0], 37 [3300.0], 38 [3100.0], 39 [3600.0], 40 [2999.9]
                41 [2999.9], 42 [2900.0], 43 [3600.0], 44 [3600.0], 45 [2999.9]
                46 [2500.0], 47 [3300.0]
        
System load averages (1min, 5min, 15min) : 18.2 %, 15.1 %, 14.2 %
HPC is enabled


Simulating `input.scs' on il2244vt26_davidevi at 5:46:23 PM, Mon Mar 16, 2026 (process id: 468314).
Current working directory: /home/davidevi/Desktop/myproject/Sim/CHARACTERIZATION/GM_ID_PMOS/adexl/results/data/Ocean.4/6/CHARACTERIZATION:GM_ID_PMOS:1/netlist
Command line:
    /opt/tools/cadence/installs/SPECTRE241/tools/bin/spectre -64  \
        input.scs +escchars +log ../psf/spectre.out -format psfbin  \
        +rtsf -raw ../psf +aps +mt +lqtimeout 900 -maxw 5 -maxn 5  \
        +param /opt/pdk/ams/410/spectre/ams_range.lmts -env ade  \
        -ahdllibdir  \
        /home/davidevi/Desktop/myproject/Sim/CHARACTERIZATION/GM_ID_PMOS/adexl/results/data/Ocean.4/sharedData/Job14/ahdl/input.ahdlSimDB  \
        +logstatus  \
        +adespetkn=0001089D13A302B663E41FB550AF0DF415A679A322D5069144BF588C12F604E07EF416DC01A319B562BB63D35BEC1DA545A333C21EC016B10CFD4E8D54F44F9270AA79D15D9175FF34986BDD0AF002BA50FD7FD707E002A700AC1C841AF744EA0EA979D12AF874D3349879D118F874D3349810695917353C5D2000003674

Simulation Id: ivdZrv8ebbwMsnD2
Licensing Information:
[17:46:23.121786] Configured Lic search path (24.01-s002): 3000@lic08.ug.kth.se:29000@lic06.ug.kth.se

Licensing Information:
[17:46:23.339760] Periodic Lic check successful

Loading /opt/tools/cadence/installs/SPECTRE241/tools.lnx86/cmi/lib/64bit/5.0/libinfineon_sh.so ...
Loading /opt/tools/cadence/installs/SPECTRE241/tools.lnx86/cmi/lib/64bit/5.0/libphilips_I_sh.so ...
Loading /opt/tools/cadence/installs/SPECTRE241/tools.lnx86/cmi/lib/64bit/5.0/libphilips_sh.so ...
Loading /opt/tools/cadence/installs/SPECTRE241/tools.lnx86/cmi/lib/64bit/5.0/libsparam_sh.so ...
Loading /opt/tools/cadence/installs/SPECTRE241/tools.lnx86/cmi/lib/64bit/5.0/libstmodels_sh.so ...

Warning from spectre.
    WARNING (SPECTRE-691): This CPU processor does not support x86 advanced vector extensions instructions. This may affect math operations and slow down the simulation.

Reading file:  /home/davidevi/Desktop/myproject/Sim/CHARACTERIZATION/GM_ID_PMOS/adexl/results/data/Ocean.4/6/CHARACTERIZATION:GM_ID_PMOS:1/netlist/input.scs
Reading file:  /opt/pdk/ams/410/spectre/ams_range.lmts

Warning from spectre during read of parameter soft limits file `/opt/pdk/ams/410/spectre/ams_range.lmts', during circuit read-in.
    WARNING (SPECTRE-8360): line 1511: `ac' is an undefined primitive device.
    WARNING (SPECTRE-8360): line 1512: `ac' is an undefined primitive device.
    WARNING (SPECTRE-8360): line 1513: `ac' is an undefined primitive device.
    WARNING (SPECTRE-8360): line 1514: `ac' is an undefined primitive device.
    WARNING (SPECTRE-8360): line 1515: `ac' is an undefined primitive device.
        Further occurrences of this warning will be suppressed.

Reading file:  /opt/tools/cadence/installs/SPECTRE241/tools.lnx86/spectre/etc/configs/spectre.cfg
Reading file:  /opt/pdk/ams/410/spectre/c35/soac/soac.scs
Reading file:  /opt/pdk/ams/410/spectre/c35/soac/processOption.scs
Reading file:  /opt/pdk/ams/410/spectre/c35/soac/process.scs
Reading file:  /opt/pdk/ams/410/spectre/c35/soac/soac.va

Warning from spectre during AHDL read-in.
    WARNING (VACOMP-2435): The environment variable CDS_AHDLCMI_ENABLE is no longer supported. Therefore, the simulator will use the default compiled C code flow.

Reading link:  /opt/tools/cadence/installs/SPECTRE241/tools.lnx86/spectre/etc/ahdl/constants.h
Reading file:  /opt/tools/cadence/installs/SPECTRE241/tools.lnx86/spectre/etc/ahdl/constants.vams
Reading link:  /opt/tools/cadence/installs/SPECTRE241/tools.lnx86/spectre/etc/ahdl/discipline.h
Reading file:  /opt/tools/cadence/installs/SPECTRE241/tools.lnx86/spectre/etc/ahdl/disciplines.vams
Reading file:  /opt/pdk/ams/410/spectre/c35/processOption/C35B4C3.scs
Reading file:  /opt/pdk/ams/410/spectre/c35/soac/cmos53.scs
Reading file:  /opt/pdk/ams/410/spectre/c35/soac/res.scs
Reading file:  /opt/pdk/ams/410/spectre/c35/soac/cap.scs
Reading file:  /opt/pdk/ams/410/spectre/c35/soac/bip.scs
Reading file:  /opt/pdk/ams/410/spectre/c35/soac/ind.scs
Reading file:  /opt/pdk/ams/410/spectre/c35/soac/esddiode.scs
Time for NDB Parsing: CPU = 169.863 ms, elapsed = 289.795 ms.
Time accumulated: CPU = 386.027 ms, elapsed = 289.802 ms.
Peak resident memory used = 175 Mbytes.

Existing shared object for module modp_ahdl is up to date.
Installed compiled interface for modp_ahdl.
Time for Elaboration: CPU = 31.264 ms, elapsed = 31.8429 ms.
Time accumulated: CPU = 417.478 ms, elapsed = 321.831 ms.
Peak resident memory used = 185 Mbytes.


Notice from spectre during hierarchy flattening.
    The value 'psf' specified for the 'checklimitdest' option will no longer be supported in future releases. Use 'spectre -h' to see other recommended values for the 'checklimitdest' option.


*****************************************************************************************
* 
* INFO: AMS_processOption = C35B4C3
* 
* INFO: Valid Modules  PIP VG5 HIRES
* 
*****************************************************************************************


Time for EDB Visiting: CPU = 2.569 ms, elapsed = 2.5692 ms.
Time accumulated: CPU = 420.211 ms, elapsed = 324.562 ms.
Peak resident memory used = 187 Mbytes.

Loading /opt/tools/cadence/installs/SPECTRE241/tools.lnx86/mdl/lib/64bit/libSpectreEH_sh.so ...

Warning from spectre during initial setup.
    WARNING (SPECTRE-16460): SOAC_cvarm_vspsub:Specified subcircuit master `cvarm' was not found.
    WARNING (SPECTRE-16462): SOAC_cvarm_vspsub:Error in specification of subcircuit master. Assert is ignored.
    WARNING (SPECTRE-16460): SOAC_cvarm_vbs:Specified subcircuit master `cvarm' was not found.
    WARNING (SPECTRE-16462): SOAC_cvarm_vbs:Error in specification of subcircuit master. Assert is ignored.
    WARNING (SPECTRE-16460): SOAC_cvarm_vgb:Specified subcircuit master `cvarm' was not found.
    WARNING (SPECTRE-16462): SOAC_cvarm_vgb:Error in specification of subcircuit master. Assert is ignored.
    WARNING (SPECTRE-16460): SOAC_cvart_vspsub:Specified subcircuit master `cvart' was not found.
    WARNING (SPECTRE-16462): SOAC_cvart_vspsub:Error in specification of subcircuit master. Assert is ignored.
    WARNING (SPECTRE-16460): SOAC_cvart_vbs:Specified subcircuit master `cvart' was not found.
        Further occurrences of this warning will be suppressed.
    WARNING (SPECTRE-16462): SOAC_cvart_vbs:Error in specification of subcircuit master. Assert is ignored.
        Further occurrences of this warning will be suppressed.
Notice from spectre during topology check.
    Only one connection to the following 2 nodes:
        0
        MP0.psub!
Notice from spectre during initial setup.
    Multithreading is disabled due to the size of the design being too small.


Netlist title:
        // Generated for: spectre


Global user options:
         psfversion = 1.4.0
            vabstol = 1e-06
            iabstol = 1e-12
               temp = 27
           homotopy = 5
              limit = delta
         compatible = spice2
               gmin = 1e-12
             rforce = 1
           maxnotes = 5
           maxwarns = 5
             digits = 5
               cols = 80
             pivrel = 0.001
           sensfile = ../psf/sens.output
     checklimitdest = psf
     enable_pre_ver = yes
      ignorezerovar = yes
               save = allpub
             reltol = 0.0001
               tnom = 27
             scalem = 1
              scale = 1

Scoped user options:

Circuit inventory:
              nodes 5
            bsim3v3 1     
            isource 1     
          modp_ahdl 1     
               vcvs 1     
            vsource 2     

Analysis and control statement inventory:
                 dc 1     
               info 7     

Output statements:
             .probe 0     
           .measure 0     
               save 0     

Design checks inventory:
          paramtest 2     
             assert 175   


Notice from spectre during initial setup.
    APS enabled.
    72 warnings suppressed.

Time for parsing: CPU = 11.162 ms, elapsed = 537.855 ms.
Time accumulated: CPU = 431.476 ms, elapsed = 862.521 ms.
Peak resident memory used = 193 Mbytes.

~~~~~~~~~~~~~~~~~~~~~~
Pre-Simulation Summary
~~~~~~~~~~~~~~~~~~~~~~
   -   (APS) Multi-threading. The recommended number of threads is 1, consider adding +mt=1 on command line.
~~~~~~~~~~~~~~~~~~~~~~

******************
DC Analysis `dcOp'
******************

Notice from spectre during DC analysis `dcOp'.
    No checklimit analysis defined for asserts. A default checklimit analysis 'SpectreChecklimitAnal' has been created with all asserts enabled.


Opening the PSF file ../psf/dcOp.dc ...
Important parameter values:
    reltol = 100e-06
    abstol(V) = 1 uV
    abstol(I) = 1 pA
    temp = 27 C
    tnom = 27 C
    tempeffects = all
    gmindc = 1 pS
    rabsshort = 1 mOhm
Trying `homotopy = gmin'.
Homotopy: gmin, steps: 46

Maximum value achieved for any signal of each quantity: 
V: V(net3) = 3.3 V
I: I(V2:p) = 11.26 aA
Maximum value of each quantity, excluding Verilog-A modules or dangling current sources:
V: V(net4) = 1.8 V
I: I(V2:p) = 11.26 aA
Convergence achieved in 372 iterations.
DC simulation time: CPU = 78.484 ms, elapsed = 82.3569 ms.
Total time required for dc analysis `dcOp': CPU = 78.636 ms, elapsed = 82.5078 ms, util. = 95.3%.
Time accumulated: CPU = 530.634 ms, elapsed = 966.539 ms.
Peak resident memory used = 202 Mbytes.

dcOpInfo: writing operating point information to rawfile.

Opening the PSF file ../psf/dcOpInfo.info ...
modelParameter: writing model parameter values to rawfile.

Opening the PSF file ../psf/modelParameter.info ...
element: writing instance parameter values to rawfile.

Opening the PSF file ../psf/element.info ...
outputParameter: writing output parameter values to rawfile.

Opening the PSF file ../psf/outputParameter.info ...
designParamVals: writing netlist parameters to rawfile.

Opening the PSFASCII file ../psf/designParamVals.info ...
primitives: writing primitives to rawfile.

Opening the PSFASCII file ../psf/primitives.info.primitives ...
subckts: writing subcircuits to rawfile.

Opening the PSFASCII file ../psf/subckts.info.subckts ...
Licensing Information:
Lic Summary:
[17:46:24.184571] Cdslmd servers:3000@lic08.ug.kth.se:29000@lic06.ug.kth.se
[17:46:24.708896] Feature usage summary:
[17:46:24.708897] Virtuoso_Multi_mode_Simulation


Aggregate audit (5:46:24 PM, Mon Mar 16, 2026):
Time used: CPU = 551 ms, elapsed = 994 ms, util. = 55.4%.
Time spent in licensing: elapsed = 50.8 ms, percentage of total = 5.1%.
Peak memory used = 203 Mbytes.
Simulation started at: 5:46:23 PM, Mon Mar 16, 2026, ended at: 5:46:24 PM, Mon Mar 16, 2026, with elapsed time (wall clock): 994 ms.
spectre completes with 0 errors, 17 warnings, and 7 notices.


********* LOG ENDS **************
**                             **
**                             **
********* LOG STARTS ************



Spectre (R) Circuit Simulator
Version 24.1.0.288.isr5 64bit -- 3 Apr 2025
Copyright (C) 1989-2025 Cadence Design Systems, Inc. All rights reserved worldwide. Cadence and Spectre are registered trademarks of Cadence Design Systems, Inc. All others are the property of their respective holders.

Includes RSA BSAFE(R) Cryptographic or Security Protocol Software from RSA Security, Inc.

User: davidevi   Host: il2244vt26_davidevi   HostID: 11AC2C00   PID: 468487
Memory  available: 3.0745 TB  physical: 3.2467 TB
Linux   : Rocky Linux release 8.10 (Green Obsidian)
CPU Type: Intel(R) Xeon(R) CPU E7-8857 v2 @ 3.00GHz
        Socket: Processors [Frequency]
        0:       0 [2999.9],  1 [3600.0],  2 [1200.0],  3 [3600.0],  4 [2999.9]
                 5 [2999.9],  6 [1600.0],  7 [1200.0],  8 [2600.0],  9 [1200.0]
                10 [2999.9], 11 [3600.0]
        1:      12 [3600.0], 13 [3600.0], 14 [3399.9], 15 [2400.0], 16 [3399.9]
                17 [3600.0], 18 [3600.0], 19 [3399.9], 20 [3600.0], 21 [1200.0]
                22 [1600.0], 23 [3600.0]
        2:      24 [2600.0], 25 [3399.9], 26 [3600.0], 27 [3600.0], 28 [2900.0]
                29 [3600.0], 30 [3600.0], 31 [3399.9], 32 [3600.0], 33 [3399.9]
                34 [3399.9], 35 [3600.0]
        3:      36 [2999.9], 37 [3600.0], 38 [2700.0], 39 [3600.0], 40 [2999.9]
                41 [2999.9], 42 [3600.0], 43 [3600.0], 44 [3600.0], 45 [3600.0]
                46 [3600.0], 47 [1200.0]
        
System load averages (1min, 5min, 15min) : 18.2 %, 15.1 %, 14.2 %
HPC is enabled


Simulating `input.scs' on il2244vt26_davidevi at 5:46:24 PM, Mon Mar 16, 2026 (process id: 468487).
Current working directory: /home/davidevi/Desktop/myproject/Sim/CHARACTERIZATION/GM_ID_PMOS/adexl/results/data/Ocean.4/7/CHARACTERIZATION:GM_ID_PMOS:1/netlist
Command line:
    /opt/tools/cadence/installs/SPECTRE241/tools/bin/spectre -64  \
        input.scs +escchars +log ../psf/spectre.out -format psfbin  \
        +rtsf -raw ../psf +aps +mt +lqtimeout 900 -maxw 5 -maxn 5  \
        +param /opt/pdk/ams/410/spectre/ams_range.lmts -env ade  \
        -ahdllibdir  \
        /home/davidevi/Desktop/myproject/Sim/CHARACTERIZATION/GM_ID_PMOS/adexl/results/data/Ocean.4/sharedData/Job13/ahdl/input.ahdlSimDB  \
        +logstatus  \
        +adespetkn=0001089D13A302B663E41FB550AF0DF415A679A322D5069144BF588C12F604E07EF416DC01A319B562BB63D35BEC1DA545A333C21EC016B10CFD4E8D54F44F9270AA79D15D9175FF34986BDD0AF002BA50FD7FD707E002A700AC1C841FF941E40EA979D120F874D3349879D118F874D3349810695917353C5D200000365A

Simulation Id: ivdZrv8ebbwMsnD2
Licensing Information:
[17:46:24.121794] Configured Lic search path (24.01-s002): 3000@lic08.ug.kth.se:29000@lic06.ug.kth.se

Licensing Information:
[17:46:24.421506] Periodic Lic check successful

Loading /opt/tools/cadence/installs/SPECTRE241/tools.lnx86/cmi/lib/64bit/5.0/libinfineon_sh.so ...
Loading /opt/tools/cadence/installs/SPECTRE241/tools.lnx86/cmi/lib/64bit/5.0/libphilips_I_sh.so ...
Loading /opt/tools/cadence/installs/SPECTRE241/tools.lnx86/cmi/lib/64bit/5.0/libphilips_sh.so ...
Loading /opt/tools/cadence/installs/SPECTRE241/tools.lnx86/cmi/lib/64bit/5.0/libsparam_sh.so ...
Loading /opt/tools/cadence/installs/SPECTRE241/tools.lnx86/cmi/lib/64bit/5.0/libstmodels_sh.so ...

Warning from spectre.
    WARNING (SPECTRE-691): This CPU processor does not support x86 advanced vector extensions instructions. This may affect math operations and slow down the simulation.

Reading file:  /home/davidevi/Desktop/myproject/Sim/CHARACTERIZATION/GM_ID_PMOS/adexl/results/data/Ocean.4/7/CHARACTERIZATION:GM_ID_PMOS:1/netlist/input.scs
Reading file:  /opt/pdk/ams/410/spectre/ams_range.lmts

Warning from spectre during read of parameter soft limits file `/opt/pdk/ams/410/spectre/ams_range.lmts', during circuit read-in.
    WARNING (SPECTRE-8360): line 1511: `ac' is an undefined primitive device.
    WARNING (SPECTRE-8360): line 1512: `ac' is an undefined primitive device.
    WARNING (SPECTRE-8360): line 1513: `ac' is an undefined primitive device.
    WARNING (SPECTRE-8360): line 1514: `ac' is an undefined primitive device.
    WARNING (SPECTRE-8360): line 1515: `ac' is an undefined primitive device.
        Further occurrences of this warning will be suppressed.

Reading file:  /opt/tools/cadence/installs/SPECTRE241/tools.lnx86/spectre/etc/configs/spectre.cfg
Reading file:  /opt/pdk/ams/410/spectre/c35/soac/soac.scs
Reading file:  /opt/pdk/ams/410/spectre/c35/soac/processOption.scs
Reading file:  /opt/pdk/ams/410/spectre/c35/soac/process.scs
Reading file:  /opt/pdk/ams/410/spectre/c35/soac/soac.va

Warning from spectre during AHDL read-in.
    WARNING (VACOMP-2435): The environment variable CDS_AHDLCMI_ENABLE is no longer supported. Therefore, the simulator will use the default compiled C code flow.

Reading link:  /opt/tools/cadence/installs/SPECTRE241/tools.lnx86/spectre/etc/ahdl/constants.h
Reading file:  /opt/tools/cadence/installs/SPECTRE241/tools.lnx86/spectre/etc/ahdl/constants.vams
Reading link:  /opt/tools/cadence/installs/SPECTRE241/tools.lnx86/spectre/etc/ahdl/discipline.h
Reading file:  /opt/tools/cadence/installs/SPECTRE241/tools.lnx86/spectre/etc/ahdl/disciplines.vams
Reading file:  /opt/pdk/ams/410/spectre/c35/processOption/C35B4C3.scs
Reading file:  /opt/pdk/ams/410/spectre/c35/soac/cmos53.scs
Reading file:  /opt/pdk/ams/410/spectre/c35/soac/res.scs
Reading file:  /opt/pdk/ams/410/spectre/c35/soac/cap.scs
Reading file:  /opt/pdk/ams/410/spectre/c35/soac/bip.scs
Reading file:  /opt/pdk/ams/410/spectre/c35/soac/ind.scs
[...]

Reading link:  /opt/tools/cadence/installs/SPECTRE241/tools.lnx86/spectre/etc/ahdl/constants.h
Reading file:  /opt/tools/cadence/installs/SPECTRE241/tools.lnx86/spectre/etc/ahdl/constants.vams
Reading link:  /opt/tools/cadence/installs/SPECTRE241/tools.lnx86/spectre/etc/ahdl/discipline.h
Reading file:  /opt/tools/cadence/installs/SPECTRE241/tools.lnx86/spectre/etc/ahdl/disciplines.vams
Reading file:  /opt/pdk/ams/410/spectre/c35/processOption/C35B4C3.scs
Reading file:  /opt/pdk/ams/410/spectre/c35/soac/cmos53.scs
Reading file:  /opt/pdk/ams/410/spectre/c35/soac/res.scs
Reading file:  /opt/pdk/ams/410/spectre/c35/soac/cap.scs
Reading file:  /opt/pdk/ams/410/spectre/c35/soac/bip.scs
Reading file:  /opt/pdk/ams/410/spectre/c35/soac/ind.scs
Reading file:  /opt/pdk/ams/410/spectre/c35/soac/esddiode.scs
Time for NDB Parsing: CPU = 154.44 ms, elapsed = 291.299 ms.
Time accumulated: CPU = 360.819 ms, elapsed = 291.308 ms.
Peak resident memory used = 175 Mbytes.

Existing shared object for module modp_ahdl is up to date.
Installed compiled interface for modp_ahdl.
Time for Elaboration: CPU = 31.395 ms, elapsed = 32.2919 ms.
Time accumulated: CPU = 392.371 ms, elapsed = 323.755 ms.
Peak resident memory used = 185 Mbytes.


Notice from spectre during hierarchy flattening.
    The value 'psf' specified for the 'checklimitdest' option will no longer be supported in future releases. Use 'spectre -h' to see other recommended values for the 'checklimitdest' option.


*****************************************************************************************
* 
* INFO: AMS_processOption = C35B4C3
* 
* INFO: Valid Modules  PIP VG5 HIRES
* 
*****************************************************************************************


Time for EDB Visiting: CPU = 2.647 ms, elapsed = 2.64692 ms.
Time accumulated: CPU = 395.195 ms, elapsed = 326.566 ms.
Peak resident memory used = 188 Mbytes.

Loading /opt/tools/cadence/installs/SPECTRE241/tools.lnx86/mdl/lib/64bit/libSpectreEH_sh.so ...

Warning from spectre during initial setup.
    WARNING (SPECTRE-16460): SOAC_cvarm_vspsub:Specified subcircuit master `cvarm' was not found.
    WARNING (SPECTRE-16462): SOAC_cvarm_vspsub:Error in specification of subcircuit master. Assert is ignored.
    WARNING (SPECTRE-16460): SOAC_cvarm_vbs:Specified subcircuit master `cvarm' was not found.
    WARNING (SPECTRE-16462): SOAC_cvarm_vbs:Error in specification of subcircuit master. Assert is ignored.
    WARNING (SPECTRE-16460): SOAC_cvarm_vgb:Specified subcircuit master `cvarm' was not found.
    WARNING (SPECTRE-16462): SOAC_cvarm_vgb:Error in specification of subcircuit master. Assert is ignored.
    WARNING (SPECTRE-16460): SOAC_cvart_vspsub:Specified subcircuit master `cvart' was not found.
    WARNING (SPECTRE-16462): SOAC_cvart_vspsub:Error in specification of subcircuit master. Assert is ignored.
    WARNING (SPECTRE-16460): SOAC_cvart_vbs:Specified subcircuit master `cvart' was not found.
        Further occurrences of this warning will be suppressed.
    WARNING (SPECTRE-16462): SOAC_cvart_vbs:Error in specification of subcircuit master. Assert is ignored.
        Further occurrences of this warning will be suppressed.
Notice from spectre during topology check.
    Only one connection to the following 2 nodes:
        0
        MP0.psub!
Notice from spectre during initial setup.
    Multithreading is disabled due to the size of the design being too small.


Netlist title:
        // Generated for: spectre


Global user options:
         psfversion = 1.4.0
            vabstol = 1e-06
            iabstol = 1e-12
               temp = 27
           homotopy = 5
              limit = delta
         compatible = spice2
               gmin = 1e-12
             rforce = 1
           maxnotes = 5
           maxwarns = 5
             digits = 5
               cols = 80
             pivrel = 0.001
           sensfile = ../psf/sens.output
     checklimitdest = psf
     enable_pre_ver = yes
      ignorezerovar = yes
               save = allpub
             reltol = 0.0001
               tnom = 27
             scalem = 1
              scale = 1

Scoped user options:

Circuit inventory:
              nodes 5
            bsim3v3 1     
            isource 1     
          modp_ahdl 1     
               vcvs 1     
            vsource 2     

Analysis and control statement inventory:
                 dc 1     
               info 7     

Output statements:
             .probe 0     
           .measure 0     
               save 0     

Design checks inventory:
          paramtest 2     
             assert 175   


Notice from spectre during initial setup.
    APS enabled.
    72 warnings suppressed.

Time for parsing: CPU = 11.449 ms, elapsed = 528.364 ms.
Time accumulated: CPU = 406.744 ms, elapsed = 855.03 ms.
Peak resident memory used = 193 Mbytes.

~~~~~~~~~~~~~~~~~~~~~~
Pre-Simulation Summary
~~~~~~~~~~~~~~~~~~~~~~
   -   (APS) Multi-threading. The recommended number of threads is 1, consider adding +mt=1 on command line.
~~~~~~~~~~~~~~~~~~~~~~

******************
DC Analysis `dcOp'
******************

Notice from spectre during DC analysis `dcOp'.
    No checklimit analysis defined for asserts. A default checklimit analysis 'SpectreChecklimitAnal' has been created with all asserts enabled.


Opening the PSF file ../psf/dcOp.dc ...
Important parameter values:
    reltol = 100e-06
    abstol(V) = 1 uV
    abstol(I) = 1 pA
    temp = 27 C
    tnom = 27 C
    tempeffects = all
    gmindc = 1 pS
    rabsshort = 1 mOhm
Trying `homotopy = gmin'.
Homotopy: gmin, steps: 38

Maximum value achieved for any signal of each quantity: 
V: V(net3) = 3.3 V
I: I(V2:p) = 10.72 aA
Maximum value of each quantity, excluding Verilog-A modules or dangling current sources:
V: V(net4) = 1.8 V
I: I(V2:p) = 10.72 aA
Convergence achieved in 328 iterations.
DC simulation time: CPU = 77.378 ms, elapsed = 81.7668 ms.
Total time required for dc analysis `dcOp': CPU = 77.574 ms, elapsed = 81.9509 ms, util. = 94.7%.
Time accumulated: CPU = 505.374 ms, elapsed = 958.465 ms.
Peak resident memory used = 202 Mbytes.

dcOpInfo: writing operating point information to rawfile.

Opening the PSF file ../psf/dcOpInfo.info ...
modelParameter: writing model parameter values to rawfile.

Opening the PSF file ../psf/modelParameter.info ...
element: writing instance parameter values to rawfile.

Opening the PSF file ../psf/element.info ...
outputParameter: writing output parameter values to rawfile.

Opening the PSF file ../psf/outputParameter.info ...
designParamVals: writing netlist parameters to rawfile.

Opening the PSFASCII file ../psf/designParamVals.info ...
primitives: writing primitives to rawfile.

Opening the PSFASCII file ../psf/primitives.info.primitives ...
subckts: writing subcircuits to rawfile.

Opening the PSFASCII file ../psf/subckts.info.subckts ...
Licensing Information:
Lic Summary:
[17:47:02.369835] Cdslmd servers:3000@lic08.ug.kth.se:29000@lic06.ug.kth.se
[17:47:02.369874] Feature usage summary:
[17:47:02.369875] Virtuoso_Multi_mode_Simulation


Aggregate audit (5:47:02 PM, Mon Mar 16, 2026):
Time used: CPU = 525 ms, elapsed = 986 ms, util. = 53.3%.
Time spent in licensing: elapsed = 46.3 ms.
Peak memory used = 203 Mbytes.
Simulation started at: 5:47:01 PM, Mon Mar 16, 2026, ended at: 5:47:02 PM, Mon Mar 16, 2026, with elapsed time (wall clock): 986 ms.
spectre completes with 0 errors, 17 warnings, and 7 notices.


********* LOG ENDS **************
**                             **
**                             **
********* LOG STARTS ************



Spectre (R) Circuit Simulator
Version 24.1.0.288.isr5 64bit -- 3 Apr 2025
Copyright (C) 1989-2025 Cadence Design Systems, Inc. All rights reserved worldwide. Cadence and Spectre are registered trademarks of Cadence Design Systems, Inc. All others are the property of their respective holders.

Includes RSA BSAFE(R) Cryptographic or Security Protocol Software from RSA Security, Inc.

User: davidevi   Host: il2244vt26_davidevi   HostID: 11AC2C00   PID: 479621
Memory  available: 3.0733 TB  physical: 3.2467 TB
Linux   : Rocky Linux release 8.10 (Green Obsidian)
CPU Type: Intel(R) Xeon(R) CPU E7-8857 v2 @ 3.00GHz
        Socket: Processors [Frequency]
        0:       0 [2999.9],  1 [3600.0],  2 [1200.0],  3 [1200.0],  4 [3300.0]
                 5 [1200.0],  6 [2999.9],  7 [3600.0],  8 [1200.0],  9 [2999.9]
                10 [1200.0], 11 [1200.0]
        1:      12 [3600.0], 13 [3600.0], 14 [3600.0], 15 [3400.6], 16 [1200.0]
                17 [3600.0], 18 [3400.6], 19 [1300.0], 20 [3399.9], 21 [2300.0]
                22 [1200.0], 23 [2700.0]
        2:      24 [3404.8], 25 [2700.0], 26 [3600.0], 27 [3399.9], 28 [3000.0]
                29 [3600.0], 30 [3399.9], 31 [3600.0], 32 [3600.0], 33 [3600.0]
                34 [2600.0], 35 [3600.0]
        3:      36 [1200.0], 37 [3000.0], 38 [3383.1], 39 [1500.0], 40 [2300.0]
                41 [3000.0], 42 [3600.0], 43 [3600.0], 44 [3600.0], 45 [2400.0]
                46 [3400.9], 47 [3500.0]
        
System load averages (1min, 5min, 15min) : 23.2 %, 16.9 %, 14.8 %
HPC is enabled


Simulating `input.scs' on il2244vt26_davidevi at 5:47:01 PM, Mon Mar 16, 2026 (process id: 479621).
Current working directory: /home/davidevi/Desktop/myproject/Sim/CHARACTERIZATION/GM_ID_PMOS/adexl/results/data/Ocean.4/76/CHARACTERIZATION:GM_ID_PMOS:1/netlist
Command line:
    /opt/tools/cadence/installs/SPECTRE241/tools/bin/spectre -64  \
        input.scs +escchars +log ../psf/spectre.out -format psfbin  \
        +rtsf -raw ../psf +aps +mt +lqtimeout 900 -maxw 5 -maxn 5  \
        +param /opt/pdk/ams/410/spectre/ams_range.lmts -env ade  \
        -ahdllibdir  \
        /home/davidevi/Desktop/myproject/Sim/CHARACTERIZATION/GM_ID_PMOS/adexl/results/data/Ocean.4/sharedData/Job14/ahdl/input.ahdlSimDB  \
        +logstatus  \
        +adespetkn=0001089D13A302B663E41FB550AF0DF415A679A322D5069144BF588C12F604E07EF416DC01A319B562BB63D35CF21ABB45A365CE2E8E27E14CCC6C8670FF4F9259FE79D15D9175FF34986BDD0AF002BA50FD7FD707E002A700AC1C841AF744EA0EA979D12AF874D3349879D118F874D3349810695AED36C65D20000036D7

Simulation Id: nheDdKxTS2SFx1mf
Licensing Information:
[17:47:01.121762] Configured Lic search path (24.01-s002): 3000@lic08.ug.kth.se:29000@lic06.ug.kth.se

Licensing Information:
[17:47:01.352744] Periodic Lic check successful

Loading /opt/tools/cadence/installs/SPECTRE241/tools.lnx86/cmi/lib/64bit/5.0/libinfineon_sh.so ...
Loading /opt/tools/cadence/installs/SPECTRE241/tools.lnx86/cmi/lib/64bit/5.0/libphilips_I_sh.so ...
Loading /opt/tools/cadence/installs/SPECTRE241/tools.lnx86/cmi/lib/64bit/5.0/libphilips_sh.so ...
Loading /opt/tools/cadence/installs/SPECTRE241/tools.lnx86/cmi/lib/64bit/5.0/libsparam_sh.so ...
Loading /opt/tools/cadence/installs/SPECTRE241/tools.lnx86/cmi/lib/64bit/5.0/libstmodels_sh.so ...

Warning from spectre.
    WARNING (SPECTRE-691): This CPU processor does not support x86 advanced vector extensions instructions. This may affect math operations and slow down the simulation.

Reading file:  /home/davidevi/Desktop/myproject/Sim/CHARACTERIZATION/GM_ID_PMOS/adexl/results/data/Ocean.4/76/CHARACTERIZATION:GM_ID_PMOS:1/netlist/input.scs
Reading file:  /opt/pdk/ams/410/spectre/ams_range.lmts

Warning from spectre during read of parameter soft limits file `/opt/pdk/ams/410/spectre/ams_range.lmts', during circuit read-in.
    WARNING (SPECTRE-8360): line 1511: `ac' is an undefined primitive device.
    WARNING (SPECTRE-8360): line 1512: `ac' is an undefined primitive device.
    WARNING (SPECTRE-8360): line 1513: `ac' is an undefined primitive device.
    WARNING (SPECTRE-8360): line 1514: `ac' is an undefined primitive device.
    WARNING (SPECTRE-8360): line 1515: `ac' is an undefined primitive device.
        Further occurrences of this warning will be suppressed.

Reading file:  /opt/tools/cadence/installs/SPECTRE241/tools.lnx86/spectre/etc/configs/spectre.cfg
Reading file:  /opt/pdk/ams/410/spectre/c35/soac/soac.scs
Reading file:  /opt/pdk/ams/410/spectre/c35/soac/processOption.scs
Reading file:  /opt/pdk/ams/410/spectre/c35/soac/process.scs
Reading file:  /opt/pdk/ams/410/spectre/c35/soac/soac.va

Warning from spectre during AHDL read-in.
    WARNING (VACOMP-2435): The environment variable CDS_AHDLCMI_ENABLE is no longer supported. Therefore, the simulator will use the default compiled C code flow.

Reading link:  /opt/tools/cadence/installs/SPECTRE241/tools.lnx86/spectre/etc/ahdl/constants.h
Reading file:  /opt/tools/cadence/installs/SPECTRE241/tools.lnx86/spectre/etc/ahdl/constants.vams
Reading link:  /opt/tools/cadence/installs/SPECTRE241/tools.lnx86/spectre/etc/ahdl/discipline.h
Reading file:  /opt/tools/cadence/installs/SPECTRE241/tools.lnx86/spectre/etc/ahdl/disciplines.vams
Reading file:  /opt/pdk/ams/410/spectre/c35/processOption/C35B4C3.scs
Reading file:  /opt/pdk/ams/410/spectre/c35/soac/cmos53.scs
Reading file:  /opt/pdk/ams/410/spectre/c35/soac/res.scs
Reading file:  /opt/pdk/ams/410/spectre/c35/soac/cap.scs
Reading file:  /opt/pdk/ams/410/spectre/c35/soac/bip.scs
Reading file:  /opt/pdk/ams/410/spectre/c35/soac/ind.scs
Reading file:  /opt/pdk/ams/410/spectre/c35/soac/esddiode.scs
Time for NDB Parsing: CPU = 146.858 ms, elapsed = 308.56 ms.
Time accumulated: CPU = 340.573 ms, elapsed = 308.563 ms.
Peak resident memory used = 175 Mbytes.

Existing shared object for module modp_ahdl is up to date.
Installed compiled interface for modp_ahdl.
Time for Elaboration: CPU = 29.922 ms, elapsed = 30.8318 ms.
Time accumulated: CPU = 370.668 ms, elapsed = 339.567 ms.
Peak resident memory used = 185 Mbytes.


Notice from spectre during hierarchy flattening.
    The value 'psf' specified for the 'checklimitdest' option will no longer be supported in future releases. Use 'spectre -h' to see other recommended values for the 'checklimitdest' option.


*****************************************************************************************
* 
* INFO: AMS_processOption = C35B4C3
* 
* INFO: Valid Modules  PIP VG5 HIRES
* 
*****************************************************************************************


Time for EDB Visiting: CPU = 2.777 ms, elapsed = 2.7771 ms.
Time accumulated: CPU = 373.577 ms, elapsed = 342.476 ms.
Peak resident memory used = 188 Mbytes.

Loading /opt/tools/cadence/installs/SPECTRE241/tools.lnx86/mdl/lib/64bit/libSpectreEH_sh.so ...

Warning from spectre during initial setup.
    WARNING (SPECTRE-16460): SOAC_cvarm_vspsub:Specified subcircuit master `cvarm' was not found.
    WARNING (SPECTRE-16462): SOAC_cvarm_vspsub:Error in specification of subcircuit master. Assert is ignored.
    WARNING (SPECTRE-16460): SOAC_cvarm_vbs:Specified subcircuit master `cvarm' was not found.
    WARNING (SPECTRE-16462): SOAC_cvarm_vbs:Error in specification of subcircuit master. Assert is ignored.
    WARNING (SPECTRE-16460): SOAC_cvarm_vgb:Specified subcircuit master `cvarm' was not found.
    WARNING (SPECTRE-16462): SOAC_cvarm_vgb:Error in specification of subcircuit master. Assert is ignored.
    WARNING (SPECTRE-16460): SOAC_cvart_vspsub:Specified subcircuit master `cvart' was not found.
    WARNING (SPECTRE-16462): SOAC_cvart_vspsub:Error in specification of subcircuit master. Assert is ignored.
    WARNING (SPECTRE-16460): SOAC_cvart_vbs:Specified subcircuit master `cvart' was not found.
        Further occurrences of this warning will be suppressed.
    WARNING (SPECTRE-16462): SOAC_cvart_vbs:Error in specification of subcircuit master. Assert is ignored.
        Further occurrences of this warning will be suppressed.
Notice from spectre during topology check.
    Only one connection to the following 2 nodes:
        0
        MP0.psub!
Notice from spectre during initial setup.
    Multithreading is disabled due to the size of the design being too small.


Netlist title:
        // Generated for: spectre


Global user options:
         psfversion = 1.4.0
            vabstol = 1e-06
            iabstol = 1e-12
               temp = 27
           homotopy = 5
              limit = delta
         compatible = spice2
               gmin = 1e-12
             rforce = 1
           maxnotes = 5
           maxwarns = 5
             digits = 5
               cols = 80
             pivrel = 0.001
           sensfile = ../psf/sens.output
     checklimitdest = psf
     enable_pre_ver = yes
      ignorezerovar = yes
               save = allpub
             reltol = 0.0001
               tnom = 27
             scalem = 1
              scale = 1

Scoped user options:

Circuit inventory:
              nodes 5
            bsim3v3 1     
            isource 1     
          modp_ahdl 1     
               vcvs 1     
            vsource 2     

Analysis and control statement inventory:
                 dc 1     
               info 7     

Output statements:
             .probe 0     
           .measure 0     
               save 0     

Design checks inventory:
          paramtest 2     
             assert 175   


Notice from spectre during initial setup.
    APS enabled.
    72 warnings suppressed.

Time for parsing: CPU = 11.276 ms, elapsed = 544.493 ms.
Time accumulated: CPU = 384.951 ms, elapsed = 887.066 ms.
Peak resident memory used = 193 Mbytes.

~~~~~~~~~~~~~~~~~~~~~~
Pre-Simulation Summary
~~~~~~~~~~~~~~~~~~~~~~
   -   (APS) Multi-threading. The recommended number of threads is 1, consider adding +mt=1 on command line.
~~~~~~~~~~~~~~~~~~~~~~

******************
DC Analysis `dcOp'
******************

Notice from spectre during DC analysis `dcOp'.
    No checklimit analysis defined for asserts. A default checklimit analysis 'SpectreChecklimitAnal' has been created with all asserts enabled.


Opening the PSF file ../psf/dcOp.dc ...
Important parameter values:
    reltol = 100e-06
    abstol(V) = 1 uV
    abstol(I) = 1 pA
    temp = 27 C
    tnom = 27 C
    tempeffects = all
    gmindc = 1 pS
    rabsshort = 1 mOhm
Trying `homotopy = gmin'.
Homotopy: gmin, steps: 24

Maximum value achieved for any signal of each quantity: 
V: V(net3) = 3.3 V
I: I(V2:p) = 10.71 aA
Maximum value of each quantity, excluding Verilog-A modules or dangling current sources:
V: V(net4) = 1.8 V
I: I(V2:p) = 10.71 aA
Convergence achieved in 233 iterations.
DC simulation time: CPU = 76.649 ms, elapsed = 80.6792 ms.
Total time required for dc analysis `dcOp': CPU = 76.778 ms, elapsed = 80.796 ms, util. = 95%.
Time accumulated: CPU = 482.222 ms, elapsed = 988.803 ms.
Peak resident memory used = 202 Mbytes.

dcOpInfo: writing operating point information to rawfile.

Opening the PSF file ../psf/dcOpInfo.info ...
modelParameter: writing model parameter values to rawfile.

Opening the PSF file ../psf/modelParameter.info ...
element: writing instance parameter values to rawfile.

Opening the PSF file ../psf/element.info ...
outputParameter: writing output parameter values to rawfile.

Opening the PSF file ../psf/outputParameter.info ...
designParamVals: writing netlist parameters to rawfile.

Opening the PSFASCII file ../psf/designParamVals.info ...
primitives: writing primitives to rawfile.

Opening the PSFASCII file ../psf/primitives.info.primitives ...
subckts: writing subcircuits to rawfile.

Opening the PSFASCII file ../psf/subckts.info.subckts ...
Licensing Information:
Lic Summary:
[17:47:02.187123] Cdslmd servers:3000@lic08.ug.kth.se:29000@lic06.ug.kth.se
[17:47:02.711465] Feature usage summary:
[17:47:02.711466] Virtuoso_Multi_mode_Simulation


Aggregate audit (5:47:02 PM, Mon Mar 16, 2026):
Time used: CPU = 503 ms, elapsed = 1.02 s, util. = 49.4%.
Time spent in licensing: elapsed = 44.3 ms.
Peak memory used = 203 Mbytes.
Simulation started at: 5:47:01 PM, Mon Mar 16, 2026, ended at: 5:47:02 PM, Mon Mar 16, 2026, with elapsed time (wall clock): 1.02 s.
spectre completes with 0 errors, 17 warnings, and 7 notices.


********* LOG ENDS **************
**                             **
