
Spectre (R) Circuit Simulator
Version 24.1.0.288.isr5 64bit -- 3 Apr 2025
Copyright (C) 1989-2025 Cadence Design Systems, Inc. All rights reserved worldwide. Cadence and Spectre are registered trademarks of Cadence Design Systems, Inc. All others are the property of their respective holders.

Includes RSA BSAFE(R) Cryptographic or Security Protocol Software from RSA Security, Inc.

User: davidevi   Host: il2244vt26_davidevi   HostID: 11AC2C00   PID: 1026962
Memory  available: 3.0252 TB  physical: 3.2467 TB
Linux   : Rocky Linux release 8.10 (Green Obsidian)
CPU Type: Intel(R) Xeon(R) CPU E7-8857 v2 @ 3.00GHz
        Socket: Processors [Frequency]
        0:       0 [3399.9],  1 [1200.0],  2 [1200.0],  3 [1200.0],  4 [3399.9]
                 5 [3399.9],  6 [1200.0],  7 [1200.0],  8 [3107.4],  9 [1200.0]
                10 [3399.9], 11 [1200.0]
        1:      12 [3600.0], 13 [3399.9], 14 [2100.0], 15 [3400.0], 16 [1200.0]
                17 [1200.0], 18 [3600.0], 19 [3399.9], 20 [1300.0], 21 [2100.0]
                22 [3600.0], 23 [1500.0]
        2:      24 [1200.0], 25 [1300.0], 26 [1200.0], 27 [2500.0], 28 [1200.0]
                29 [3399.9], 30 [3064.1], 31 [1200.0], 32 [1200.0], 33 [3600.0]
                34 [3399.9], 35 [1200.0]
        3:      36 [3398.2], 37 [3398.2], 38 [2300.0], 39 [3419.4], 40 [3600.0]
                41 [2200.0], 42 [3100.0], 43 [3600.0], 44 [1200.0], 45 [1200.0]
                46 [3600.0], 47 [3398.2]
        
System load averages (1min, 5min, 15min) : 28.3 %, 25.6 %, 24.9 %
HPC is enabled


Simulating `input.scs' on il2244vt26_davidevi at 4:52:13 PM, Wed Apr 15, 2026 (process id: 1026962).
Current working directory: /home/davidevi/Desktop/myproject/Sim/VGA/VGA_1_wakeup_tb/adexl/results/data/MonteCarlo.0/16/wakeup/groupRunDataDir/netlist
Command line:
    /opt/tools/cadence/installs/SPECTRE241/tools/bin/spectre -64  \
        input.scs +escchars +log ../psf/spectre.out -format psfbin  \
        +rtsf -raw ../psf +aps +mt +lqtimeout 900 -maxw 5 -maxn 5  \
        +param /opt/pdk/ams/410/spectre/ams_range.lmts -env ade  \
        -ahdllibdir  \
        /home/davidevi/Desktop/myproject/Sim/VGA/VGA_1_wakeup_tb/adexl/results/data/MonteCarlo.0/sharedData/Job456/ahdl/input.ahdlSimDB  \
        +logstatus  \
        +adespetkn=0001089D13A302B663E41FB550AF0DF415A679A322D5069144BF588C12F604E07EF416DC01A319B562BB63D343EF05A645A35F8438A804BB44AE32DC41DD4F9205D479D15D9175FF34986BDD0AF002BA50FD7FD707E002A700AC1C801BFD45E00EAD79D128F874D3349879D118F874D33498100EDAC4B6EF5D47000036A9

Simulation Id: quP8Vcp6phbdzA1L
Licensing Information:
[16:52:13.121746] Configured Lic search path (24.01-s002): 3000@lic08.ug.kth.se:29000@lic06.ug.kth.se

Licensing Information:
[16:52:13.491131] Periodic Lic check successful

Loading /opt/tools/cadence/installs/SPECTRE241/tools.lnx86/cmi/lib/64bit/5.0/libinfineon_sh.so ...
Loading /opt/tools/cadence/installs/SPECTRE241/tools.lnx86/cmi/lib/64bit/5.0/libphilips_I_sh.so ...
Loading /opt/tools/cadence/installs/SPECTRE241/tools.lnx86/cmi/lib/64bit/5.0/libphilips_sh.so ...
Loading /opt/tools/cadence/installs/SPECTRE241/tools.lnx86/cmi/lib/64bit/5.0/libsparam_sh.so ...
Loading /opt/tools/cadence/installs/SPECTRE241/tools.lnx86/cmi/lib/64bit/5.0/libstmodels_sh.so ...

Warning from spectre.
    WARNING (SPECTRE-691): This CPU processor does not support x86 advanced vector extensions instructions. This may affect math operations and slow down the simulation.

Reading file:  /home/davidevi/Desktop/myproject/Sim/VGA/VGA_1_wakeup_tb/adexl/results/data/MonteCarlo.0/16/wakeup/groupRunDataDir/netlist/input.scs
Reading file:  /opt/pdk/ams/410/spectre/ams_range.lmts

Warning from spectre during read of parameter soft limits file `/opt/pdk/ams/410/spectre/ams_range.lmts', during circuit read-in.
    WARNING (SPECTRE-8360): line 1511: `ac' is an undefined primitive device.
    WARNING (SPECTRE-8360): line 1512: `ac' is an undefined primitive device.
    WARNING (SPECTRE-8360): line 1513: `ac' is an undefined primitive device.
    WARNING (SPECTRE-8360): line 1514: `ac' is an undefined primitive device.
    WARNING (SPECTRE-8360): line 1515: `ac' is an undefined primitive device.
        Further occurrences of this warning will be suppressed.

Reading file:  /opt/tools/cadence/installs/SPECTRE241/tools.lnx86/spectre/etc/configs/spectre.cfg
Reading file:  /opt/pdk/ams/410/spectre/c35/soac/soac.scs
Reading file:  /opt/pdk/ams/410/spectre/c35/soac/processOption.scs
Reading file:  /opt/pdk/ams/410/spectre/c35/soac/process.scs
Reading file:  /opt/pdk/ams/410/spectre/c35/soac/soac.va

Warning from spectre during AHDL read-in.
    WARNING (VACOMP-2435): The environment variable CDS_AHDLCMI_ENABLE is no longer supported. Therefore, the simulator will use the default compiled C code flow.

Reading link:  /opt/tools/cadence/installs/SPECTRE241/tools.lnx86/spectre/etc/ahdl/constants.h
Reading file:  /opt/tools/cadence/installs/SPECTRE241/tools.lnx86/spectre/etc/ahdl/constants.vams
Reading link:  /opt/tools/cadence/installs/SPECTRE241/tools.lnx86/spectre/etc/ahdl/discipline.h
Reading file:  /opt/tools/cadence/installs/SPECTRE241/tools.lnx86/spectre/etc/ahdl/disciplines.vams
Reading file:  /opt/pdk/ams/410/spectre/c35/processOption/C35B4C3.scs
Reading file:  /opt/pdk/ams/410/spectre/c35/soac/cmos53.scs
Reading file:  /opt/pdk/ams/410/spectre/c35/soac/res.scs
Reading file:  /opt/pdk/ams/410/spectre/c35/soac/cap.scs
Reading file:  /opt/pdk/ams/410/spectre/c35/soac/bip.scs
Reading file:  /opt/pdk/ams/410/spectre/c35/soac/ind.scs
Reading file:  /opt/pdk/ams/410/spectre/c35/soac/esddiode.scs
Time for NDB Parsing: CPU = 158.054 ms, elapsed = 314.803 ms.
Time accumulated: CPU = 335.199 ms, elapsed = 314.805 ms.
Peak resident memory used = 175 Mbytes.

Existing shared object for module modn_ahdl is up to date.
Installed compiled interface for modn_ahdl.
Existing shared object for module modp_ahdl is up to date.
Installed compiled interface for modp_ahdl.
Existing shared object for module cpoly_ahdl is up to date.
Installed compiled interface for cpoly_ahdl.
Existing shared object for module rpolyh_ahdl is up to date.
Installed compiled interface for rpolyh_ahdl.
Existing shared object for module bsource_19b458 is up to date.
Installed compiled interface for bsource_19b458.
Time for Elaboration: CPU = 53.782 ms, elapsed = 55.9771 ms.
Time accumulated: CPU = 389.098 ms, elapsed = 370.898 ms.
Peak resident memory used = 188 Mbytes.


Notice from spectre during hierarchy flattening.
    The value 'psf' specified for the 'checklimitdest' option will no longer be supported in future releases. Use 'spectre -h' to see other recommended values for the 'checklimitdest' option.


*****************************************************************************************
* 
* INFO: AMS_processOption = C35B4C3
* 
* INFO: Valid Modules  PIP VG5 HIRES
* 
*****************************************************************************************


Notice from spectre during hierarchy flattening.
    V8: `period' has the unusually large value of 100 s.


Time for EDB Visiting: CPU = 9.037 ms, elapsed = 9.03702 ms.
Time accumulated: CPU = 398.438 ms, elapsed = 380.236 ms.
Peak resident memory used = 191 Mbytes.

Loading /opt/tools/cadence/installs/SPECTRE241/tools.lnx86/mdl/lib/64bit/libSpectreEH_sh.so ...

Warning from spectre during initial setup.
    WARNING (SPECTRE-16460): SOAC_cvarm_vspsub:Specified subcircuit master `cvarm' was not found.
    WARNING (SPECTRE-16462): SOAC_cvarm_vspsub:Error in specification of subcircuit master. Assert is ignored.
    WARNING (SPECTRE-16460): SOAC_cvarm_vbs:Specified subcircuit master `cvarm' was not found.
    WARNING (SPECTRE-16462): SOAC_cvarm_vbs:Error in specification of subcircuit master. Assert is ignored.
    WARNING (SPECTRE-16460): SOAC_cvarm_vgb:Specified subcircuit master `cvarm' was not found.
    WARNING (SPECTRE-16462): SOAC_cvarm_vgb:Error in specification of subcircuit master. Assert is ignored.
    WARNING (SPECTRE-16460): SOAC_cvart_vspsub:Specified subcircuit master `cvart' was not found.
    WARNING (SPECTRE-16462): SOAC_cvart_vspsub:Error in specification of subcircuit master. Assert is ignored.
    WARNING (SPECTRE-16460): SOAC_cvart_vbs:Specified subcircuit master `cvart' was not found.
        Further occurrences of this warning will be suppressed.
    WARNING (SPECTRE-16462): SOAC_cvart_vbs:Error in specification of subcircuit master. Assert is ignored.
        Further occurrences of this warning will be suppressed.
Notice from spectre during topology check.
    Only one connection to the following 54 nodes:
        I0.MN6.psub!
        I0.MN5.psub!
        I0.MN4.psub!
        I0.MN3.psub!
        I0.MN2.psub!
        Further occurrences of this notice will be suppressed.
Notice from spectre during initial setup.
    Multithreading is disabled due to the size of the design being too small.


Netlist title:
        // Point Netlist Generated on: Apr 15 16:52:12 2026


Global user options:
         psfversion = 1.4.0
            vabstol = 1e-06
            iabstol = 1e-12
               temp = -40
           homotopy = 5
              limit = delta
         compatible = spice2
               gmin = 1e-12
             rforce = 1
           maxnotes = 5
           maxwarns = 5
             digits = 5
               cols = 80
             pivrel = 0.001
           sensfile = ../psf/sens.output
     checklimitdest = psf
     enable_pre_ver = yes
      ignorezerovar = yes
               save = allpub
             reltol = 0.0001
               tnom = 27
             scalem = 1
              scale = 1

Scoped user options:

Circuit inventory:
              nodes 88
            bsim3v3 35    
     bsource_19b458 2     
          capacitor 38    
         cpoly_ahdl 17    
            isource 1     
          modn_ahdl 19    
          modp_ahdl 16    
           resistor 1     
        rpolyh_ahdl 2     
            vsource 8     

Analysis and control statement inventory:
               info 7     
         montecarlo 1     
               tran 1     

Output statements:
             .probe 0     
           .measure 0     
               save 0     

Design checks inventory:
          paramtest 55    
             assert 175   


Notice from spectre during initial setup.
    APS enabled.
    1 notice suppressed.
    72 warnings suppressed.

Time for parsing: CPU = 17.12 ms, elapsed = 560.074 ms.
Time accumulated: CPU = 415.67 ms, elapsed = 940.422 ms.
Peak resident memory used = 198 Mbytes.

~~~~~~~~~~~~~~~~~~~~~~
Pre-Simulation Summary
~~~~~~~~~~~~~~~~~~~~~~
   -   (APS) Multi-threading. The recommended number of threads is 1, consider adding +mt=1 on command line.
~~~~~~~~~~~~~~~~~~~~~~

**************************************************
Monte Carlo Analysis `mc1': iteration = (1 -> 100)
**************************************************
Important parameter values:
    seed = 12345
    sampling = lds
    variations = all
    firstrun = 1
    numruns = 100
    nullmfactorcorrelation = no
    donominal = yes
    method = standard

**** Performing nominal run for `mc1'

Notice from spectre during transient analysis `tran', during Monte Carlo analysis `mc1'.
    No checklimit analysis defined for asserts. A default checklimit analysis 'SpectreChecklimitAnal' has been created with all asserts enabled.


***********************************************
Transient Analysis `tran': time = (0 s -> 50 s)
***********************************************

Warning from spectre during check, during IC analysis, during transient analysis `tran', during Monte Carlo analysis `mc1'.
    WARNING (CMI-2943): Parameter checks have been ignored because the valid value for parameter 'trise' could not be found in 'C1'.
    WARNING (CMI-2943): Parameter checks have been ignored because the valid value for parameter 'trise' could not be found in 'I0.R2.CM'.
    WARNING (CMI-2943): Parameter checks have been ignored because the valid value for parameter 'trise' could not be found in 'I0.R2.CS1'.
    WARNING (CMI-2943): Parameter checks have been ignored because the valid value for parameter 'trise' could not be found in 'I0.R2.CS0'.
    WARNING (CMI-2943): Parameter checks have been ignored because the valid value for parameter 'trise' could not be found in 'I0.C3.C1'.
        Further occurrences of this warning will be suppressed.

Convergence achieved in 12 iterations.
DC simulation time: CPU = 2.661 ms, elapsed = 2.6629 ms.

Opening the PSF file ../psf/nom/tran.tran.tran ...
Important parameter values:
    start = 0 s
    outputstart = 0 s
    stop = 50 s
    step = 50 ms
    maxstep = 500 ms
    ic = all
    useprevic = no
    skipdc = no
    reltol = 10e-06
    abstol(V) = 1 uV
    abstol(I) = 1 pA
    temp = -40 C
    tnom = 27 C
    tempeffects = all
    errpreset = conservative
    method = gear2only
    lteratio = 10
    relref = alllocal
    cmin = 0 F
    gmin = 1 pS
    rabsshort = 1 mOhm


Notice from spectre during transient analysis `tran', during Monte Carlo analysis `mc1'.
    Multithreading is disabled due to the size of the design being too small.


Output and IC/nodeset summary:
                 save   8       (current)
                 save   87      (voltage)

    tran: time = 1.297 s     (2.59 %), step = 97.77 ms     (196 m%)
    tran: time = 3.959 s     (7.92 %), step = 385.9 ms     (772 m%)
    tran: time = 6.361 s     (12.7 %), step = 500 ms          (1 %)
    tran: time = 8.861 s     (17.7 %), step = 500 ms          (1 %)
    tran: time = 11.36 s     (22.7 %), step = 500 ms          (1 %)
    tran: time = 13.86 s     (27.7 %), step = 500 ms          (1 %)
    tran: time = 16.36 s     (32.7 %), step = 500 ms          (1 %)
    tran: time = 18.86 s     (37.7 %), step = 500 ms          (1 %)
    tran: time = 21.36 s     (42.7 %), step = 500 ms          (1 %)
    tran: time = 23.86 s     (47.7 %), step = 500 ms          (1 %)
    tran: time = 26.36 s     (52.7 %), step = 500 ms          (1 %)
    tran: time = 28.86 s     (57.7 %), step = 500 ms          (1 %)
    tran: time = 31.36 s     (62.7 %), step = 500 ms          (1 %)
    tran: time = 33.86 s     (67.7 %), step = 500 ms          (1 %)
    tran: time = 36.36 s     (72.7 %), step = 500 ms          (1 %)
    tran: time = 38.86 s     (77.7 %), step = 500 ms          (1 %)
    tran: time = 41.36 s     (82.7 %), step = 500 ms          (1 %)
    tran: time = 43.86 s     (87.7 %), step = 500 ms          (1 %)
    tran: time = 46.36 s     (92.7 %), step = 500 ms          (1 %)
    tran: time = 48.86 s     (97.7 %), step = 500 ms          (1 %)
Number of accepted tran steps =             737

Maximum value achieved for any signal of each quantity: 
V: V(vout) = 3.3 V
I: I(V8:p) = 6.479 uA

~~~~~~~~~~~~~~~~~~~~~~~~~~~~~~~~~
Post-Transient Simulation Summary
~~~~~~~~~~~~~~~~~~~~~~~~~~~~~~~~~
   -   To further speed up simulation, consider
          add ++aps on command line
   -   Non-default settings that could significantly slow down simulation
          errpreset = conservative, default moderate
          reltol = 10e-06, default 100e-06 (conservative)
~~~~~~~~~~~~~~~~~~~~~~~~~~~~~~~~~


During simulation, the CPU load for active processors is :
         0 (5.5 %)       1 (1.6 %)       2 (3.1 %)       3 (55.4 %)
         4 (100.0 %)     5 (48.8 %)      7 (1.6 %)       9 (12.4 %)
        10 (46.6 %)     11 (19.0 %)     12 (47.3 %)     13 (36.5 %)
        14 (10.3 %)     15 (4.7 %)      16 (47.6 %)     17 (6.3 %)
        18 (12.0 %)     19 (56.2 %)     20 (12.7 %)     21 (15.3 %)
        22 (64.6 %)     23 (14.8 %)     24 (5.6 %)      25 (46.8 %)
        26 (7.1 %)      27 (4.0 %)      28 (2.4 %)      29 (100.0 %)
        30 (4.0 %)      31 (48.0 %)     32 (4.7 %)      33 (4.8 %)
        34 (95.4 %)     35 (1.6 %)      36 (23.6 %)     37 (9.6 %)
        38 (35.2 %)     39 (30.2 %)     40 (8.8 %)      41 (14.3 %)
        42 (13.4 %)     43 (15.7 %)     44 (9.5 %)      45 (4.8 %)
        46 (38.0 %)     47 (96.9 %)     
        Total: 1247.9%
Initial condition solution time: CPU = 2.701 ms, elapsed = 2.70295 ms.
Intrinsic tran analysis time:    CPU = 396.266 ms, elapsed = 397.514 ms.
Total time required for tran analysis `tran': CPU = 473.32 ms, elapsed = 476.979 ms, util. = 99.2%.
Time accumulated: CPU = 911.014 ms, elapsed = 1.44052 s.
Peak resident memory used = 209 Mbytes.


Notice from spectre during transient analysis `tran', during Monte Carlo analysis `mc1'.
    34 warnings suppressed.

finalTimeOP: writing operating point information to rawfile.

Opening the PSF file ../psf/nom/finalTimeOP.info ...
modelParameter: writing model parameter values to rawfile.

Opening the PSF file ../psf/nom/modelParameter.info ...
element: writing instance parameter values to rawfile.

Opening the PSF file ../psf/nom/element.info ...
outputParameter: writing output parameter values to rawfile.

Opening the PSF file ../psf/nom/outputParameter.info ...
designParamVals: writing netlist parameters to rawfile.

Opening the PSFASCII file ../psf/nom/designParamVals.info ...
primitives: writing primitives to rawfile.

Opening the PSFASCII file ../psf/nom/primitives.info.primitives ...
subckts: writing subcircuits to rawfile.

Opening the PSFASCII file ../psf/nom/subckts.info.subckts ...
Opening iteration number and data-directory mapping file:  /home/davidevi/Desktop/myproject/Sim/VGA/VGA_1_wakeup_tb/adexl/results/data/MonteCarlo.0/16/wakeup/groupRunDataDir/netlist/../psf/mc1.mapping

Statistical parameters:
    Defined process parameters: 629
    Defined mismatch parameters (subckt based): 86
    Non-referenced mismatch parameters: 80
    Number of random variables: 718
    Gaussian truncation for process parameters: 4.00 sigma
    Gaussian truncation for mismatch parameters: 4.00 sigma


Opening the PSF file ../psf/mc1_tran.montecarlo ...

Opening the PSF file ../psf/mc1_finalTimeOP.montecarlo ...

Opening the PSF file ../psf/mc1_modelParameter.montecarlo ...

Opening the PSF file ../psf/mc1_element.montecarlo ...

Opening the PSF file ../psf/mc1_outputParameter.montecarlo ...

Opening the PSF file ../psf/mc1_designParamVals.montecarlo ...

Opening the PSF file ../psf/mc1_primitives.montecarlo ...

Opening the PSF file ../psf/mc1_subckts.montecarlo ...

**** Performing monte carlo loop for `mc1'

1   0.00% 

*****************************************************************************************
* 
* INFO: AMS_processOption = C35B4C3
* 
* INFO: Valid Modules  PIP VG5 HIRES
* 
*****************************************************************************************


Notice from spectre at iteration = 1 during Monte Carlo analysis `mc1'.
    V8: `period' has the unusually large value of 100 s.


***********************************************
Transient Analysis `tran': time = (0 s -> 50 s)
***********************************************

Opening the PSF file ../psf/mc1_separate/001/tran.tran.tran ...

Warning from spectre at iteration = 1 during check, during IC analysis, during transient analysis `tran', during Monte Carlo analysis `mc1'.
    WARNING (CMI-2943): Parameter checks have been ignored because the valid value for parameter 'trise' could not be found in 'C1'.
    WARNING (CMI-2943): Parameter checks have been ignored because the valid value for parameter 'trise' could not be found in 'I0.R2.CM'.
    WARNING (CMI-2943): Parameter checks have been ignored because the valid value for parameter 'trise' could not be found in 'I0.R2.CS1'.
    WARNING (CMI-2943): Parameter checks have been ignored because the valid value for parameter 'trise' could not be found in 'I0.R2.CS0'.
    WARNING (CMI-2943): Parameter checks have been ignored because the valid value for parameter 'trise' could not be found in 'I0.C3.C1'.
        Further occurrences of this warning will be suppressed.

Convergence achieved in 12 iterations.
DC simulation time: CPU = 2.318 ms, elapsed = 2.31886 ms.
Important parameter values:
    start = 0 s
    outputstart = 0 s
    stop = 50 s
    step = 50 ms
    maxstep = 500 ms
    ic = all
    useprevic = no
    skipdc = no
    reltol = 10e-06
    abstol(V) = 1 uV
    abstol(I) = 1 pA
    temp = -40 C
    tnom = 27 C
    tempeffects = all
    errpreset = conservative
    method = gear2only
    lteratio = 10
    relref = alllocal
    cmin = 0 F
    gmin = 1 pS
    rabsshort = 1 mOhm


Notice from spectre at iteration = 1 during transient analysis `tran', during Monte Carlo analysis `mc1'.
    Multithreading is disabled due to the size of the design being too small.


Output and IC/nodeset summary:
                 save   8       (current)
                 save   87      (voltage)

    tran: time = 1.278 s     (2.56 %), step = 79.9 ms      (160 m%)
    tran: time = 3.812 s     (7.62 %), step = 356 ms       (712 m%)
    tran: time = 6.621 s     (13.2 %), step = 500 ms          (1 %)
    tran: time = 9.121 s     (18.2 %), step = 500 ms          (1 %)
    tran: time = 11.62 s     (23.2 %), step = 500 ms          (1 %)
    tran: time = 14.12 s     (28.2 %), step = 500 ms          (1 %)
    tran: time = 16.62 s     (33.2 %), step = 500 ms          (1 %)
    tran: time = 19.12 s     (38.2 %), step = 500 ms          (1 %)
    tran: time = 21.62 s     (43.2 %), step = 500 ms          (1 %)
    tran: time = 24.12 s     (48.2 %), step = 500 ms          (1 %)
    tran: time = 26.62 s     (53.2 %), step = 500 ms          (1 %)
    tran: time = 29.12 s     (58.2 %), step = 500 ms          (1 %)
    tran: time = 31.62 s     (63.2 %), step = 500 ms          (1 %)
    tran: time = 34.12 s     (68.2 %), step = 500 ms          (1 %)
    tran: time = 36.62 s     (73.2 %), step = 500 ms          (1 %)
    tran: time = 39.12 s     (78.2 %), step = 500 ms          (1 %)
    tran: time = 41.62 s     (83.2 %), step = 500 ms          (1 %)
    tran: time = 44.12 s     (88.2 %), step = 500 ms          (1 %)
    tran: time = 46.62 s     (93.2 %), step = 500 ms          (1 %)
    tran: time = 49.12 s     (98.2 %), step = 500 ms          (1 %)
Number of accepted tran steps =             749

Maximum value achieved for any signal of each quantity: 
V: V(vout) = 3.3 V
I: I(V8:p) = 6.382 uA

~~~~~~~~~~~~~~~~~~~~~~~~~~~~~~~~~
Post-Transient Simulation Summary
~~~~~~~~~~~~~~~~~~~~~~~~~~~~~~~~~
   -   To further speed up simulation, consider
          add ++aps on command line
   -   Non-default settings that could significantly slow down simulation
          errpreset = conservative, default moderate
          reltol = 10e-06, default 100e-06 (conservative)
~~~~~~~~~~~~~~~~~~~~~~~~~~~~~~~~~


During simulation, the CPU load for active processors is :
         0 (4.9 %)       1 (2.2 %)       2 (3.2 %)       3 (68.1 %)
         4 (100.0 %)     5 (33.7 %)      6 (1.1 %)       7 (2.7 %)
         8 (1.6 %)       9 (39.9 %)     10 (32.8 %)     11 (13.1 %)
        12 (45.5 %)     13 (50.0 %)     14 (8.7 %)      15 (3.8 %)
        16 (33.7 %)     17 (6.0 %)      18 (19.0 %)     19 (69.3 %)
        20 (9.8 %)      21 (12.6 %)     22 (45.7 %)     23 (40.1 %)
        24 (5.5 %)      25 (41.5 %)     26 (6.6 %)      27 (5.4 %)
        28 (3.3 %)      29 (100.0 %)    30 (3.8 %)      31 (62.4 %)
        32 (7.0 %)      33 (6.0 %)      34 (95.8 %)     35 (2.2 %)
        36 (32.1 %)     37 (16.4 %)     38 (54.8 %)     39 (28.6 %)
        40 (8.7 %)      41 (31.4 %)     42 (10.8 %)     43 (12.9 %)
        44 (7.2 %)      45 (4.3 %)      46 (28.0 %)     47 (78.6 %)
        Total: 1300.9%
Initial condition solution time: CPU = 2.358 ms, elapsed = 2.35987 ms.
Intrinsic tran analysis time:    CPU = 410.452 ms, elapsed = 411.679 ms.
Total time required for tran analysis `tran': CPU = 415.219 ms, elapsed = 417.045 ms, util. = 99.6%.
Time accumulated: CPU = 1.39498 s, elapsed = 1.93805 s.
Peak resident memory used = 213 Mbytes.


Notice from spectre during transient analysis `tran', during Monte Carlo analysis `mc1'.
    34 warnings suppressed.

finalTimeOP: writing operating point information to rawfile.

Opening the PSF file ../psf/mc1_separate/001/finalTimeOP.info ...
modelParameter: writing model parameter values to rawfile.

Opening the PSF file ../psf/mc1_separate/001/modelParameter.info ...
element: writing instance parameter values to rawfile.

Opening the PSF file ../psf/mc1_separate/001/element.info ...
outputParameter: writing output parameter values to rawfile.

Opening the PSF file ../psf/mc1_separate/001/outputParameter.info ...
designParamVals: writing netlist parameters to rawfile.

Opening the PSFASCII file ../psf/mc1_separate/001/designParamVals.info ...
primitives: writing primitives to rawfile.

Opening the PSFASCII file ../psf/mc1_separate/001/primitives.info.primitives ...
subckts: writing subcircuits to rawfile.

Opening the PSFASCII file ../psf/mc1_separate/001/subckts.info.subckts ...
2   1.01% 

*****************************************************************************************
* 
* INFO: AMS_processOption = C35B4C3
* 
* INFO: Valid Modules  PIP VG5 HIRES
* 
*****************************************************************************************


Notice from spectre during Monte Carlo analysis `mc1'.
    V8: `period' has the unusually large value of 100 s.


***********************************************
Transient Analysis `tran': time = (0 s -> 50 s)
***********************************************

Opening the PSF file ../psf/mc1_separate/002/tran.tran.tran ...

Warning from spectre during check, during IC analysis, during transient analysis `tran', during Monte Carlo analysis `mc1'.
    WARNING (CMI-2943): Parameter checks have been ignored because the valid value for parameter 'trise' could not be found in 'C1'.
    WARNING (CMI-2943): Parameter checks have been ignored because the valid value for parameter 'trise' could not be found in 'I0.R2.CM'.
    WARNING (CMI-2943): Parameter checks have been ignored because the valid value for parameter 'trise' could not be found in 'I0.R2.CS1'.
    WARNING (CMI-2943): Parameter checks have been ignored because the valid value for parameter 'trise' could not be found in 'I0.R2.CS0'.
    WARNING (CMI-2943): Parameter checks have been ignored because the valid value for parameter 'trise' could not be found in 'I0.C3.C1'.
        Further occurrences of this warning will be suppressed.

Convergence achieved in 12 iterations.
DC simulation time: CPU = 2.386 ms, elapsed = 2.39301 ms.
Important parameter values:
    start = 0 s
    outputstart = 0 s
    stop = 50 s
    step = 50 ms
    maxstep = 500 ms
    ic = all
    useprevic = no
    skipdc = no
    reltol = 10e-06
    abstol(V) = 1 uV
    abstol(I) = 1 pA
    temp = -40 C
    tnom = 27 C
    tempeffects = all
    errpreset = conservative
    method = gear2only
    lteratio = 10
    relref = alllocal
    cmin = 0 F
    gmin = 1 pS
    rabsshort = 1 mOhm


Notice from spectre during transient analysis `tran', during Monte Carlo analysis `mc1'.
    Multithreading is disabled due to the size of the design being too small.


Output and IC/nodeset summary:
                 save   8       (current)
                 save   87      (voltage)

    tran: time = 1.259 s     (2.52 %), step = 84.46 ms     (169 m%)
    tran: time = 3.935 s     (7.87 %), step = 374.9 ms     (750 m%)
    tran: time = 6.311 s     (12.6 %), step = 500 ms          (1 %)
    tran: time = 8.811 s     (17.6 %), step = 500 ms          (1 %)
    tran: time = 11.31 s     (22.6 %), step = 500 ms          (1 %)
    tran: time = 13.81 s     (27.6 %), step = 500 ms          (1 %)
    tran: time = 16.31 s     (32.6 %), step = 500 ms          (1 %)
    tran: time = 18.81 s     (37.6 %), step = 500 ms          (1 %)
    tran: time = 21.31 s     (42.6 %), step = 500 ms          (1 %)
    tran: time = 23.81 s     (47.6 %), step = 500 ms          (1 %)
    tran: time = 26.31 s     (52.6 %), step = 500 ms          (1 %)
    tran: time = 28.81 s     (57.6 %), step = 500 ms          (1 %)
    tran: time = 31.31 s     (62.6 %), step = 500 ms          (1 %)
    tran: time = 33.81 s     (67.6 %), step = 500 ms          (1 %)
    tran: time = 36.31 s     (72.6 %), step = 500 ms          (1 %)
    tran: time = 38.81 s     (77.6 %), step = 500 ms          (1 %)
    tran: time = 41.31 s     (82.6 %), step = 500 ms          (1 %)
    tran: time = 43.81 s     (87.6 %), step = 500 ms          (1 %)
    tran: time = 46.31 s     (92.6 %), step = 500 ms          (1 %)
    tran: time = 48.81 s     (97.6 %), step = 500 ms          (1 %)
Number of accepted tran steps =             746

Maximum value achieved for any signal of each quantity: 
V: V(vout) = 3.3 V
I: I(V8:p) = 6.412 uA

~~~~~~~~~~~~~~~~~~~~~~~~~~~~~~~~~
Post-Transient Simulation Summary
~~~~~~~~~~~~~~~~~~~~~~~~~~~~~~~~~
   -   To further speed up simulation, consider
          add ++aps on command line
   -   Non-default settings that could significantly slow down simulation
          errpreset = conservative, default moderate
          reltol = 10e-06, default 100e-06 (conservative)
~~~~~~~~~~~~~~~~~~~~~~~~~~~~~~~~~


During simulation, the CPU load for active processors is :
         0 (4.8 %)       1 (2.2 %)       2 (3.0 %)       3 (70.1 %)
         4 (100.0 %)     5 (31.6 %)      6 (1.3 %)       7 (2.2 %)
         8 (1.8 %)       9 (51.7 %)     10 (27.5 %)     11 (12.2 %)
        12 (39.5 %)     13 (59.5 %)     14 (8.3 %)      15 (4.4 %)
        16 (27.8 %)     17 (6.2 %)      18 (30.4 %)     19 (70.9 %)
        20 (12.2 %)     21 (10.1 %)     22 (39.3 %)     23 (37.3 %)
        24 (5.7 %)      25 (34.3 %)     26 (6.1 %)      27 (5.2 %)
        28 (3.5 %)      29 (100.0 %)    30 (4.4 %)      31 (52.6 %)
        32 (23.7 %)     33 (8.3 %)      34 (96.2 %)     35 (4.8 %)
        36 (28.3 %)     37 (23.6 %)     38 (63.2 %)     39 (30.5 %)
        40 (10.6 %)     41 (26.5 %)     42 (15.7 %)     43 (12.6 %)
        44 (11.9 %)     45 (4.4 %)      46 (31.3 %)     47 (75.2 %)
        Total: 1332.9%
Initial condition solution time: CPU = 2.426 ms, elapsed = 2.43306 ms.
Intrinsic tran analysis time:    CPU = 409.031 ms, elapsed = 410.198 ms.
Total time required for tran analysis `tran': CPU = 413.812 ms, elapsed = 415.49 ms, util. = 99.6%.
Time accumulated: CPU = 1.84838 s, elapsed = 2.4026 s.
Peak resident memory used = 213 Mbytes.


Notice from spectre during transient analysis `tran', during Monte Carlo analysis `mc1'.
    34 warnings suppressed.

finalTimeOP: writing operating point information to rawfile.

Opening the PSF file ../psf/mc1_separate/002/finalTimeOP.info ...
modelParameter: writing model parameter values to rawfile.

Opening the PSF file ../psf/mc1_separate/002/modelParameter.info ...
element: writing instance parameter values to rawfile.

Opening the PSF file ../psf/mc1_separate/002/element.info ...
outputParameter: writing output parameter values to rawfile.

Opening the PSF file ../psf/mc1_separate/002/outputParameter.info ...
designParamVals: writing netlist parameters to rawfile.

Opening the PSFASCII file ../psf/mc1_separate/002/designParamVals.info ...
primitives: writing primitives to rawfile.

Opening the PSFASCII file ../psf/mc1_separate/002/primitives.info.primitives ...
subckts: writing subcircuits to rawfile.

Opening the PSFASCII file ../psf/mc1_separate/002/subckts.info.subckts ...
3   2.02% 

*****************************************************************************************
* 
* INFO: AMS_processOption = C35B4C3
* 
* INFO: Valid Modules  PIP VG5 HIRES
* 
*****************************************************************************************


Notice from spectre during Monte Carlo analysis `mc1'.
    V8: `period' has the unusually large value of 100 s.


***********************************************
Transient Analysis `tran': time = (0 s -> 50 s)
***********************************************

Opening the PSF file ../psf/mc1_separate/003/tran.tran.tran ...

Warning from spectre during check, during IC analysis, during transient analysis `tran', during Monte Carlo analysis `mc1'.
    WARNING (CMI-2943): Parameter checks have been ignored because the valid value for parameter 'trise' could not be found in 'C1'.
    WARNING (CMI-2943): Parameter checks have been ignored because the valid value for parameter 'trise' could not be found in 'I0.R2.CM'.
    WARNING (CMI-2943): Parameter checks have been ignored because the valid value for parameter 'trise' could not be found in 'I0.R2.CS1'.
    WARNING (CMI-2943): Parameter checks have been ignored because the valid value for parameter 'trise' could not be found in 'I0.R2.CS0'.
    WARNING (CMI-2943): Parameter checks have been ignored because the valid value for parameter 'trise' could not be found in 'I0.C3.C1'.
        Further occurrences of this warning will be suppressed.

Convergence achieved in 12 iterations.
DC simulation time: CPU = 2.313 ms, elapsed = 2.31504 ms.
Important parameter values:
    start = 0 s
    outputstart = 0 s
    stop = 50 s
    step = 50 ms
    maxstep = 500 ms
    ic = all
    useprevic = no
    skipdc = no
    reltol = 10e-06
    abstol(V) = 1 uV
    abstol(I) = 1 pA
    temp = -40 C
    tnom = 27 C
    tempeffects = all
    errpreset = conservative
    method = gear2only
    lteratio = 10
    relref = alllocal
    cmin = 0 F
    gmin = 1 pS
    rabsshort = 1 mOhm


Notice from spectre during transient analysis `tran', during Monte Carlo analysis `mc1'.
    Multithreading is disabled due to the size of the design being too small.


Output and IC/nodeset summary:
                 save   8       (current)
                 save   87      (voltage)

    tran: time = 1.287 s     (2.57 %), step = 110.3 ms     (221 m%)
    tran: time = 3.854 s     (7.71 %), step = 385.6 ms     (771 m%)
    tran: time = 6.251 s     (12.5 %), step = 500 ms          (1 %)
    tran: time = 8.751 s     (17.5 %), step = 500 ms          (1 %)
    tran: time = 11.25 s     (22.5 %), step = 500 ms          (1 %)
    tran: time = 13.75 s     (27.5 %), step = 500 ms          (1 %)
    tran: time = 16.25 s     (32.5 %), step = 500 ms          (1 %)
    tran: time = 18.75 s     (37.5 %), step = 500 ms          (1 %)
    tran: time = 21.25 s     (42.5 %), step = 500 ms          (1 %)
    tran: time = 23.75 s     (47.5 %), step = 500 ms          (1 %)
    tran: time = 26.25 s     (52.5 %), step = 500 ms          (1 %)
    tran: time = 28.75 s     (57.5 %), step = 500 ms          (1 %)
    tran: time = 31.25 s     (62.5 %), step = 500 ms          (1 %)
    tran: time = 33.75 s     (67.5 %), step = 500 ms          (1 %)
    tran: time = 36.25 s     (72.5 %), step = 500 ms          (1 %)
    tran: time = 38.75 s     (77.5 %), step = 500 ms          (1 %)
    tran: time = 41.25 s     (82.5 %), step = 500 ms          (1 %)
    tran: time = 43.75 s     (87.5 %), step = 500 ms          (1 %)
    tran: time = 46.25 s     (92.5 %), step = 500 ms          (1 %)
    tran: time = 48.75 s     (97.5 %), step = 500 ms          (1 %)
Number of accepted tran steps =             746

Maximum value achieved for any signal of each quantity: 
V: V(vout) = 3.3 V
I: I(V8:p) = 6.302 uA

~~~~~~~~~~~~~~~~~~~~~~~~~~~~~~~~~
Post-Transient Simulation Summary
~~~~~~~~~~~~~~~~~~~~~~~~~~~~~~~~~
   -   To further speed up simulation, consider
          add ++aps on command line
   -   Non-default settings that could significantly slow down simulation
          errpreset = conservative, default moderate
          reltol = 10e-06, default 100e-06 (conservative)
~~~~~~~~~~~~~~~~~~~~~~~~~~~~~~~~~


During simulation, the CPU load for active processors is :
         0 (5.1 %)       1 (1.8 %)       2 (2.9 %)       3 (60.5 %)
         4 (100.0 %)     5 (42.8 %)      6 (1.1 %)       7 (5.1 %)
         8 (1.8 %)       9 (59.8 %)     10 (23.5 %)     11 (10.9 %)
        12 (36.7 %)     13 (56.8 %)     14 (16.4 %)     15 (4.0 %)
        16 (23.4 %)     17 (5.5 %)      18 (28.4 %)     19 (73.8 %)
        20 (10.9 %)     21 (8.8 %)      22 (33.3 %)     23 (31.5 %)
        24 (5.5 %)      25 (29.1 %)     26 (5.1 %)      27 (11.2 %)
        28 (4.0 %)      29 (100.0 %)    30 (4.0 %)      31 (44.6 %)
        32 (36.3 %)     33 (9.1 %)      34 (91.8 %)     35 (4.8 %)
        36 (31.5 %)     37 (27.0 %)     38 (56.5 %)     39 (41.1 %)
        40 (9.9 %)      41 (32.6 %)     42 (13.9 %)     43 (12.3 %)
        44 (12.1 %)     45 (4.4 %)      46 (27.2 %)     47 (63.8 %)
        Total: 1322.7%
Initial condition solution time: CPU = 2.439 ms, elapsed = 2.44093 ms.
Intrinsic tran analysis time:    CPU = 407.254 ms, elapsed = 408.726 ms.
Total time required for tran analysis `tran': CPU = 412.186 ms, elapsed = 414.269 ms, util. = 99.5%.
Time accumulated: CPU = 2.29839 s, elapsed = 2.86459 s.
Peak resident memory used = 213 Mbytes.


Notice from spectre during transient analysis `tran', during Monte Carlo analysis `mc1'.
    34 warnings suppressed.

finalTimeOP: writing operating point information to rawfile.

Opening the PSF file ../psf/mc1_separate/003/finalTimeOP.info ...
modelParameter: writing model parameter values to rawfile.

Opening the PSF file ../psf/mc1_separate/003/modelParameter.info ...
element: writing instance parameter values to rawfile.

Opening the PSF file ../psf/mc1_separate/003/element.info ...
outputParameter: writing output parameter values to rawfile.

Opening the PSF file ../psf/mc1_separate/003/outputParameter.info ...
designParamVals: writing netlist parameters to rawfile.

Opening the PSFASCII file ../psf/mc1_separate/003/designParamVals.info ...
primitives: writing primitives to rawfile.

Opening the PSFASCII file ../psf/mc1_separate/003/primitives.info.primitives ...
subckts: writing subcircuits to rawfile.

Opening the PSFASCII file ../psf/mc1_separate/003/subckts.info.subckts ...
4   3.03% 

*****************************************************************************************
* 
* INFO: AMS_processOption = C35B4C3
* 
* INFO: Valid Modules  PIP VG5 HIRES
* 
*****************************************************************************************


Notice from spectre during Monte Carlo analysis `mc1'.
    V8: `period' has the unusually large value of 100 s.


***********************************************
Transient Analysis `tran': time = (0 s -> 50 s)
***********************************************

Opening the PSF file ../psf/mc1_separate/004/tran.tran.tran ...

Warning from spectre during check, during IC analysis, during transient analysis `tran', during Monte Carlo analysis `mc1'.
    WARNING (CMI-2943): Parameter checks have been ignored because the valid value for parameter 'trise' could not be found in 'C1'.
    WARNING (CMI-2943): Parameter checks have been ignored because the valid value for parameter 'trise' could not be found in 'I0.R2.CM'.
    WARNING (CMI-2943): Parameter checks have been ignored because the valid value for parameter 'trise' could not be found in 'I0.R2.CS1'.
    WARNING (CMI-2943): Parameter checks have been ignored because the valid value for parameter 'trise' could not be found in 'I0.R2.CS0'.
    WARNING (CMI-2943): Parameter checks have been ignored because the valid value for parameter 'trise' could not be found in 'I0.C3.C1'.
        Further occurrences of this warning will be suppressed.

Convergence achieved in 12 iterations.
DC simulation time: CPU = 2.206 ms, elapsed = 2.20704 ms.
Important parameter values:
    start = 0 s
    outputstart = 0 s
    stop = 50 s
    step = 50 ms
    maxstep = 500 ms
    ic = all
    useprevic = no
    skipdc = no
    reltol = 10e-06
    abstol(V) = 1 uV
    abstol(I) = 1 pA
    temp = -40 C
    tnom = 27 C
    tempeffects = all
    errpreset = conservative
    method = gear2only
    lteratio = 10
    relref = alllocal
    cmin = 0 F
    gmin = 1 pS
    rabsshort = 1 mOhm


Notice from spectre during transient analysis `tran', during Monte Carlo analysis `mc1'.
    Multithreading is disabled due to the size of the design being too small.


Output and IC/nodeset summary:
                 save   8       (current)
                 save   87      (voltage)

    tran: time = 1.284 s     (2.57 %), step = 112.6 ms     (225 m%)
    tran: time = 3.904 s     (7.81 %), step = 391.9 ms     (784 m%)
    tran: time = 6.312 s     (12.6 %), step = 500 ms          (1 %)
    tran: time = 8.812 s     (17.6 %), step = 500 ms          (1 %)
    tran: time = 11.31 s     (22.6 %), step = 500 ms          (1 %)
    tran: time = 13.81 s     (27.6 %), step = 500 ms          (1 %)
    tran: time = 16.31 s     (32.6 %), step = 500 ms          (1 %)
    tran: time = 18.81 s     (37.6 %), step = 500 ms          (1 %)
    tran: time = 21.31 s     (42.6 %), step = 500 ms          (1 %)
    tran: time = 23.81 s     (47.6 %), step = 500 ms          (1 %)
    tran: time = 26.31 s     (52.6 %), step = 500 ms          (1 %)
    tran: time = 28.81 s     (57.6 %), step = 500 ms          (1 %)
    tran: time = 31.31 s     (62.6 %), step = 500 ms          (1 %)
    tran: time = 33.81 s     (67.6 %), step = 500 ms          (1 %)
    tran: time = 36.31 s     (72.6 %), step = 500 ms          (1 %)
    tran: time = 38.81 s     (77.6 %), step = 500 ms          (1 %)
    tran: time = 41.31 s     (82.6 %), step = 500 ms          (1 %)
    tran: time = 43.81 s     (87.6 %), step = 500 ms          (1 %)
    tran: time = 46.31 s     (92.6 %), step = 500 ms          (1 %)
    tran: time = 48.81 s     (97.6 %), step = 500 ms          (1 %)
Number of accepted tran steps =             753

Maximum value achieved for any signal of each quantity: 
V: V(vout) = 3.3 V
I: I(V8:p) = 6.604 uA

~~~~~~~~~~~~~~~~~~~~~~~~~~~~~~~~~
Post-Transient Simulation Summary
~~~~~~~~~~~~~~~~~~~~~~~~~~~~~~~~~
   -   To further speed up simulation, consider
          add ++aps on command line
   -   Non-default settings that could significantly slow down simulation
          errpreset = conservative, default moderate
          reltol = 10e-06, default 100e-06 (conservative)
~~~~~~~~~~~~~~~~~~~~~~~~~~~~~~~~~


During simulation, the CPU load for active processors is :
         0 (6.2 %)       1 (14.1 %)      2 (2.8 %)       3 (57.2 %)
         4 (100.0 %)     5 (50.8 %)      6 (2.8 %)       7 (6.9 %)
         8 (1.6 %)       9 (65.4 %)     10 (21.8 %)     11 (13.3 %)
        12 (35.2 %)     13 (50.6 %)     14 (27.7 %)     15 (3.8 %)
        16 (21.2 %)     17 (5.9 %)      18 (26.8 %)     19 (69.5 %)
        20 (9.7 %)      21 (9.4 %)      22 (39.4 %)     23 (27.8 %)
        24 (5.6 %)      25 (25.9 %)     26 (5.3 %)      27 (23.6 %)
        28 (4.0 %)      29 (100.0 %)    30 (3.8 %)      31 (38.5 %)
        32 (32.7 %)     33 (19.9 %)     34 (79.9 %)     35 (4.1 %)
        36 (31.1 %)     37 (37.4 %)     38 (49.1 %)     39 (48.8 %)
        40 (9.1 %)      41 (39.6 %)     42 (12.5 %)     43 (12.1 %)
        44 (12.6 %)     45 (3.8 %)      46 (23.8 %)     47 (55.4 %)
        Total: 1348.6%
Initial condition solution time: CPU = 2.244 ms, elapsed = 2.24519 ms.
Intrinsic tran analysis time:    CPU = 410.729 ms, elapsed = 412.109 ms.
Total time required for tran analysis `tran': CPU = 415.357 ms, elapsed = 417.357 ms, util. = 99.5%.
Time accumulated: CPU = 2.75015 s, elapsed = 3.32799 s.
Peak resident memory used = 213 Mbytes.


Notice from spectre during transient analysis `tran', during Monte Carlo analysis `mc1'.
    34 warnings suppressed.

finalTimeOP: writing operating point information to rawfile.

Opening the PSF file ../psf/mc1_separate/004/finalTimeOP.info ...
modelParameter: writing model parameter values to rawfile.

Opening the PSF file ../psf/mc1_separate/004/modelParameter.info ...
element: writing instance parameter values to rawfile.

Opening the PSF file ../psf/mc1_separate/004/element.info ...
outputParameter: writing output parameter values to rawfile.

Opening the PSF file ../psf/mc1_separate/004/outputParameter.info ...
designParamVals: writing netlist parameters to rawfile.

Opening the PSFASCII file ../psf/mc1_separate/004/designParamVals.info ...
primitives: writing primitives to rawfile.

Opening the PSFASCII file ../psf/mc1_separate/004/primitives.info.primitives ...
subckts: writing subcircuits to rawfile.

Opening the PSFASCII file ../psf/mc1_separate/004/subckts.info.subckts ...
    mc1: iteration = 4           (3.03 %), step = 1            (1.01 %)
5   4.04% 

*****************************************************************************************
* 
* INFO: AMS_processOption = C35B4C3
* 
* INFO: Valid Modules  PIP VG5 HIRES
* 
*****************************************************************************************


Notice from spectre during Monte Carlo analysis `mc1'.
    V8: `period' has the unusually large value of 100 s.


***********************************************
Transient Analysis `tran': time = (0 s -> 50 s)
***********************************************

Opening the PSF file ../psf/mc1_separate/005/tran.tran.tran ...

Warning from spectre during check, during IC analysis, during transient analysis `tran', during Monte Carlo analysis `mc1'.
    WARNING (CMI-2943): Parameter checks have been ignored because the valid value for parameter 'trise' could not be found in 'C1'.
    WARNING (CMI-2943): Parameter checks have been ignored because the valid value for parameter 'trise' could not be found in 'I0.R2.CM'.
    WARNING (CMI-2943): Parameter checks have been ignored because the valid value for parameter 'trise' could not be found in 'I0.R2.CS1'.
    WARNING (CMI-2943): Parameter checks have been ignored because the valid value for parameter 'trise' could not be found in 'I0.R2.CS0'.
    WARNING (CMI-2943): Parameter checks have been ignored because the valid value for parameter 'trise' could not be found in 'I0.C3.C1'.
        Further occurrences of this warning will be suppressed.

Convergence achieved in 12 iterations.
DC simulation time: CPU = 2.171 ms, elapsed = 2.17414 ms.
Important parameter values:
    start = 0 s
    outputstart = 0 s
    stop = 50 s
    step = 50 ms
    maxstep = 500 ms
    ic = all
    useprevic = no
    skipdc = no
    reltol = 10e-06
    abstol(V) = 1 uV
    abstol(I) = 1 pA
    temp = -40 C
    tnom = 27 C
    tempeffects = all
    errpreset = conservative
    method = gear2only
    lteratio = 10
    relref = alllocal
    cmin = 0 F
    gmin = 1 pS
    rabsshort = 1 mOhm


Notice from spectre during transient analysis `tran', during Monte Carlo analysis `mc1'.
    Multithreading is disabled due to the size of the design being too small.


Output and IC/nodeset summary:
                 save   8       (current)
                 save   87      (voltage)

    tran: time = 1.32 s      (2.64 %), step = 92.98 ms     (186 m%)
    tran: time = 3.858 s     (7.72 %), step = 368.6 ms     (737 m%)
    tran: time = 6.708 s     (13.4 %), step = 500 ms          (1 %)
    tran: time = 9.208 s     (18.4 %), step = 500 ms          (1 %)
    tran: time = 11.71 s     (23.4 %), step = 500 ms          (1 %)
    tran: time = 14.21 s     (28.4 %), step = 500 ms          (1 %)
    tran: time = 16.71 s     (33.4 %), step = 500 ms          (1 %)
    tran: time = 19.21 s     (38.4 %), step = 500 ms          (1 %)
    tran: time = 21.71 s     (43.4 %), step = 500 ms          (1 %)
    tran: time = 24.21 s     (48.4 %), step = 500 ms          (1 %)
    tran: time = 26.71 s     (53.4 %), step = 500 ms          (1 %)
    tran: time = 29.21 s     (58.4 %), step = 500 ms          (1 %)
    tran: time = 31.71 s     (63.4 %), step = 500 ms          (1 %)
    tran: time = 34.21 s     (68.4 %), step = 500 ms          (1 %)
    tran: time = 36.71 s     (73.4 %), step = 500 ms          (1 %)
    tran: time = 39.21 s     (78.4 %), step = 500 ms          (1 %)
    tran: time = 41.71 s     (83.4 %), step = 500 ms          (1 %)
    tran: time = 44.21 s     (88.4 %), step = 500 ms          (1 %)
    tran: time = 46.71 s     (93.4 %), step = 500 ms          (1 %)
    tran: time = 49.21 s     (98.4 %), step = 500 ms          (1 %)
Number of accepted tran steps =             744

Maximum value achieved for any signal of each quantity: 
V: V(vout) = 3.3 V
I: I(V8:p) = 6.506 uA

~~~~~~~~~~~~~~~~~~~~~~~~~~~~~~~~~
Post-Transient Simulation Summary
~~~~~~~~~~~~~~~~~~~~~~~~~~~~~~~~~
   -   To further speed up simulation, consider
          add ++aps on command line
   -   Non-default settings that could significantly slow down simulation
          errpreset = conservative, default moderate
          reltol = 10e-06, default 100e-06 (conservative)
~~~~~~~~~~~~~~~~~~~~~~~~~~~~~~~~~


During simulation, the CPU load for active processors is :
         0 (14.4 %)      1 (17.5 %)      2 (5.5 %)       3 (52.8 %)
         4 (100.0 %)     5 (52.8 %)      6 (3.0 %)       7 (7.4 %)
         8 (2.8 %)       9 (69.7 %)     10 (19.4 %)     11 (12.7 %)
        12 (33.2 %)     13 (46.4 %)     14 (26.3 %)     15 (13.9 %)
        16 (19.1 %)     17 (5.8 %)      18 (34.1 %)     19 (61.8 %)
        20 (8.7 %)      21 (10.7 %)     22 (45.0 %)     23 (25.3 %)
        24 (6.0 %)      25 (23.1 %)     26 (5.2 %)      27 (32.8 %)
        28 (4.1 %)      29 (100.0 %)    30 (4.1 %)      31 (34.0 %)
        32 (29.1 %)     33 (29.5 %)     34 (70.4 %)     35 (4.7 %)
        36 (29.4 %)     37 (45.1 %)     38 (43.9 %)     39 (54.7 %)
        40 (9.6 %)      41 (35.1 %)     42 (23.2 %)     43 (10.9 %)
        44 (11.5 %)     45 (3.6 %)      46 (21.1 %)     47 (49.1 %)
        Total: 1368.3%
Initial condition solution time: CPU = 2.208 ms, elapsed = 2.2099 ms.
Intrinsic tran analysis time:    CPU = 412.436 ms, elapsed = 414.029 ms.
Total time required for tran analysis `tran': CPU = 416.951 ms, elapsed = 419.184 ms, util. = 99.5%.
Time accumulated: CPU = 3.20251 s, elapsed = 3.79267 s.
Peak resident memory used = 213 Mbytes.


Notice from spectre during transient analysis `tran', during Monte Carlo analysis `mc1'.
    34 warnings suppressed.

finalTimeOP: writing operating point information to rawfile.

Opening the PSF file ../psf/mc1_separate/005/finalTimeOP.info ...
modelParameter: writing model parameter values to rawfile.

Opening the PSF file ../psf/mc1_separate/005/modelParameter.info ...
element: writing instance parameter values to rawfile.

Opening the PSF file ../psf/mc1_separate/005/element.info ...
outputParameter: writing output parameter values to rawfile.

Opening the PSF file ../psf/mc1_separate/005/outputParameter.info ...
designParamVals: writing netlist parameters to rawfile.

Opening the PSFASCII file ../psf/mc1_separate/005/designParamVals.info ...
primitives: writing primitives to rawfile.

Opening the PSFASCII file ../psf/mc1_separate/005/primitives.info.primitives ...
subckts: writing subcircuits to rawfile.

Opening the PSFASCII file ../psf/mc1_separate/005/subckts.info.subckts ...
    mc1: iteration = 5           (4.04 %), step = 1            (1.01 %)
6   5.05% 

*****************************************************************************************
* 
* INFO: AMS_processOption = C35B4C3
* 
* INFO: Valid Modules  PIP VG5 HIRES
* 
*****************************************************************************************


Notice from spectre during Monte Carlo analysis `mc1'.
    V8: `period' has the unusually large value of 100 s.


***********************************************
Transient Analysis `tran': time = (0 s -> 50 s)
***********************************************

Opening the PSF file ../psf/mc1_separate/006/tran.tran.tran ...

Warning from spectre during check, during IC analysis, during transient analysis `tran', during Monte Carlo analysis `mc1'.
    WARNING (CMI-2943): Parameter checks have been ignored because the valid value for parameter 'trise' could not be found in 'C1'.
    WARNING (CMI-2943): Parameter checks have been ignored because the valid value for parameter 'trise' could not be found in 'I0.R2.CM'.
    WARNING (CMI-2943): Parameter checks have been ignored because the valid value for parameter 'trise' could not be found in 'I0.R2.CS1'.
    WARNING (CMI-2943): Parameter checks have been ignored because the valid value for parameter 'trise' could not be found in 'I0.R2.CS0'.
    WARNING (CMI-2943): Parameter checks have been ignored because the valid value for parameter 'trise' could not be found in 'I0.C3.C1'.
        Further occurrences of this warning will be suppressed.

Convergence achieved in 12 iterations.
DC simulation time: CPU = 2.357 ms, elapsed = 2.35796 ms.
Important parameter values:
    start = 0 s
    outputstart = 0 s
    stop = 50 s
    step = 50 ms
    maxstep = 500 ms
    ic = all
    useprevic = no
    skipdc = no
    reltol = 10e-06
    abstol(V) = 1 uV
    abstol(I) = 1 pA
    temp = -40 C
    tnom = 27 C
    tempeffects = all
    errpreset = conservative
    method = gear2only
    lteratio = 10
    relref = alllocal
    cmin = 0 F
    gmin = 1 pS
    rabsshort = 1 mOhm


Notice from spectre during transient analysis `tran', during Monte Carlo analysis `mc1'.
    Multithreading is disabled due to the size of the design being too small.


Output and IC/nodeset summary:
                 save   8       (current)
                 save   87      (voltage)

    tran: time = 1.269 s     (2.54 %), step = 100.4 ms     (201 m%)
    tran: time = 4.009 s     (8.02 %), step = 393.9 ms     (788 m%)
    tran: time = 6.398 s     (12.8 %), step = 500 ms          (1 %)
    tran: time = 8.898 s     (17.8 %), step = 500 ms          (1 %)
    tran: time = 11.4 s      (22.8 %), step = 500 ms          (1 %)
    tran: time = 13.9 s      (27.8 %), step = 500 ms          (1 %)
    tran: time = 16.4 s      (32.8 %), step = 500 ms          (1 %)
    tran: time = 18.9 s      (37.8 %), step = 500 ms          (1 %)
    tran: time = 21.4 s      (42.8 %), step = 500 ms          (1 %)
    tran: time = 23.9 s      (47.8 %), step = 500 ms          (1 %)
    tran: time = 26.4 s      (52.8 %), step = 500 ms          (1 %)
    tran: time = 28.9 s      (57.8 %), step = 500 ms          (1 %)
    tran: time = 31.4 s      (62.8 %), step = 500 ms          (1 %)
    tran: time = 33.9 s      (67.8 %), step = 500 ms          (1 %)
    tran: time = 36.4 s      (72.8 %), step = 500 ms          (1 %)
    tran: time = 38.9 s      (77.8 %), step = 500 ms          (1 %)
    tran: time = 41.4 s      (82.8 %), step = 500 ms          (1 %)
    tran: time = 43.9 s      (87.8 %), step = 500 ms          (1 %)
    tran: time = 46.4 s      (92.8 %), step = 500 ms          (1 %)
    tran: time = 48.9 s      (97.8 %), step = 500 ms          (1 %)
Number of accepted tran steps =             747

Maximum value achieved for any signal of each quantity: 
V: V(vout) = 3.3 V
I: I(V8:p) = 6.54 uA

~~~~~~~~~~~~~~~~~~~~~~~~~~~~~~~~~
Post-Transient Simulation Summary
~~~~~~~~~~~~~~~~~~~~~~~~~~~~~~~~~
   -   To further speed up simulation, consider
          add ++aps on command line
   -   Non-default settings that could significantly slow down simulation
          errpreset = conservative, default moderate
          reltol = 10e-06, default 100e-06 (conservative)
~~~~~~~~~~~~~~~~~~~~~~~~~~~~~~~~~


During simulation, the CPU load for active processors is :
         0 (17.4 %)      1 (20.6 %)      2 (16.0 %)      3 (49.4 %)
         4 (100.0 %)     5 (47.4 %)      6 (3.2 %)       7 (6.6 %)
         8 (4.6 %)       9 (73.1 %)     10 (17.3 %)     11 (11.8 %)
        12 (31.6 %)     13 (44.3 %)     14 (24.3 %)     15 (23.1 %)
        16 (19.6 %)     17 (7.5 %)      18 (31.5 %)     19 (62.5 %)
        20 (9.7 %)      21 (20.0 %)     22 (41.1 %)     23 (25.4 %)
        24 (5.4 %)      25 (21.4 %)     26 (5.1 %)      27 (39.5 %)
        28 (4.8 %)      29 (100.0 %)    30 (3.9 %)      31 (30.8 %)
        32 (26.9 %)     33 (36.0 %)     34 (63.4 %)     35 (4.4 %)
        36 (35.0 %)     37 (43.3 %)     38 (39.5 %)     39 (59.7 %)
        40 (9.0 %)      41 (32.4 %)     42 (29.9 %)     43 (9.7 %)
        44 (10.3 %)     45 (3.7 %)      46 (19.5 %)     47 (44.0 %)
        Total: 1385.3%
Initial condition solution time: CPU = 2.399 ms, elapsed = 2.39992 ms.
Intrinsic tran analysis time:    CPU = 408.596 ms, elapsed = 410.03 ms.
Total time required for tran analysis `tran': CPU = 413.465 ms, elapsed = 415.389 ms, util. = 99.5%.
Time accumulated: CPU = 3.65491 s, elapsed = 4.25722 s.
Peak resident memory used = 213 Mbytes.


Notice from spectre during transient analysis `tran', during Monte Carlo analysis `mc1'.
    34 warnings suppressed.

finalTimeOP: writing operating point information to rawfile.

Opening the PSF file ../psf/mc1_separate/006/finalTimeOP.info ...
modelParameter: writing model parameter values to rawfile.

Opening the PSF file ../psf/mc1_separate/006/modelParameter.info ...
element: writing instance parameter values to rawfile.

Opening the PSF file ../psf/mc1_separate/006/element.info ...
outputParameter: writing output parameter values to rawfile.

Opening the PSF file ../psf/mc1_separate/006/outputParameter.info ...
designParamVals: writing netlist parameters to rawfile.

Opening the PSFASCII file ../psf/mc1_separate/006/designParamVals.info ...
primitives: writing primitives to rawfile.

Opening the PSFASCII file ../psf/mc1_separate/006/primitives.info.primitives ...
subckts: writing subcircuits to rawfile.

Opening the PSFASCII file ../psf/mc1_separate/006/subckts.info.subckts ...
    mc1: iteration = 6           (5.05 %), step = 1            (1.01 %)
7   6.06% 

*****************************************************************************************
* 
* INFO: AMS_processOption = C35B4C3
* 
* INFO: Valid Modules  PIP VG5 HIRES
* 
*****************************************************************************************


Notice from spectre during Monte Carlo analysis `mc1'.
    V8: `period' has the unusually large value of 100 s.


***********************************************
Transient Analysis `tran': time = (0 s -> 50 s)
***********************************************

Opening the PSF file ../psf/mc1_separate/007/tran.tran.tran ...

Warning from spectre during check, during IC analysis, during transient analysis `tran', during Monte Carlo analysis `mc1'.
    WARNING (CMI-2943): Parameter checks have been ignored because the valid value for parameter 'trise' could not be found in 'C1'.
    WARNING (CMI-2943): Parameter checks have been ignored because the valid value for parameter 'trise' could not be found in 'I0.R2.CM'.
    WARNING (CMI-2943): Parameter checks have been ignored because the valid value for parameter 'trise' could not be found in 'I0.R2.CS1'.
    WARNING (CMI-2943): Parameter checks have been ignored because the valid value for parameter 'trise' could not be found in 'I0.R2.CS0'.
    WARNING (CMI-2943): Parameter checks have been ignored because the valid value for parameter 'trise' could not be found in 'I0.C3.C1'.
        Further occurrences of this warning will be suppressed.

Convergence achieved in 12 iterations.
DC simulation time: CPU = 2.333 ms, elapsed = 2.33412 ms.
Important parameter values:
    start = 0 s
    outputstart = 0 s
    stop = 50 s
    step = 50 ms
    maxstep = 500 ms
    ic = all
    useprevic = no
    skipdc = no
    reltol = 10e-06
    abstol(V) = 1 uV
    abstol(I) = 1 pA
    temp = -40 C
    tnom = 27 C
    tempeffects = all
    errpreset = conservative
    method = gear2only
    lteratio = 10
    relref = alllocal
    cmin = 0 F
    gmin = 1 pS
    rabsshort = 1 mOhm


Notice from spectre during transient analysis `tran', during Monte Carlo analysis `mc1'.
    Multithreading is disabled due to the size of the design being too small.


Output and IC/nodeset summary:
                 save   8       (current)
                 save   87      (voltage)

    tran: time = 1.311 s     (2.62 %), step = 96.34 ms     (193 m%)
    tran: time = 3.938 s     (7.88 %), step = 380.8 ms     (762 m%)
    tran: time = 6.327 s     (12.7 %), step = 500 ms          (1 %)
    tran: time = 8.827 s     (17.7 %), step = 500 ms          (1 %)
    tran: time = 11.33 s     (22.7 %), step = 500 ms          (1 %)
    tran: time = 13.83 s     (27.7 %), step = 500 ms          (1 %)
    tran: time = 16.33 s     (32.7 %), step = 500 ms          (1 %)
    tran: time = 18.83 s     (37.7 %), step = 500 ms          (1 %)
    tran: time = 21.33 s     (42.7 %), step = 500 ms          (1 %)
    tran: time = 23.83 s     (47.7 %), step = 500 ms          (1 %)
    tran: time = 26.33 s     (52.7 %), step = 500 ms          (1 %)
    tran: time = 28.83 s     (57.7 %), step = 500 ms          (1 %)
    tran: time = 31.33 s     (62.7 %), step = 500 ms          (1 %)
    tran: time = 33.83 s     (67.7 %), step = 500 ms          (1 %)
    tran: time = 36.33 s     (72.7 %), step = 500 ms          (1 %)
    tran: time = 38.83 s     (77.7 %), step = 500 ms          (1 %)
    tran: time = 41.33 s     (82.7 %), step = 500 ms          (1 %)
    tran: time = 43.83 s     (87.7 %), step = 500 ms          (1 %)
    tran: time = 46.33 s     (92.7 %), step = 500 ms          (1 %)
    tran: time = 48.83 s     (97.7 %), step = 500 ms          (1 %)
Number of accepted tran steps =             744

Maximum value achieved for any signal of each quantity: 
V: V(vout) = 3.3 V
I: I(V8:p) = 6.443 uA

~~~~~~~~~~~~~~~~~~~~~~~~~~~~~~~~~
Post-Transient Simulation Summary
~~~~~~~~~~~~~~~~~~~~~~~~~~~~~~~~~
   -   To further speed up simulation, consider
          add ++aps on command line
   -   Non-default settings that could significantly slow down simulation
          errpreset = conservative, default moderate
          reltol = 10e-06, default 100e-06 (conservative)
~~~~~~~~~~~~~~~~~~~~~~~~~~~~~~~~~


During simulation, the CPU load for active processors is :
         0 (17.2 %)      1 (20.2 %)      2 (18.3 %)      3 (51.1 %)
         4 (94.4 %)      5 (43.7 %)      6 (4.6 %)       7 (6.1 %)
         8 (4.4 %)       9 (75.8 %)     10 (15.6 %)     11 (10.7 %)
        12 (30.6 %)     13 (41.0 %)     14 (30.9 %)     15 (29.6 %)
        16 (19.9 %)     17 (8.4 %)      18 (29.6 %)     19 (58.1 %)
        20 (10.4 %)     21 (26.5 %)     22 (38.2 %)     23 (23.8 %)
        24 (5.3 %)      25 (19.9 %)     26 (4.6 %)      27 (45.0 %)
        28 (4.8 %)      29 (100.0 %)    30 (3.7 %)      31 (28.1 %)
        32 (24.3 %)     33 (42.3 %)     34 (57.4 %)     35 (5.5 %)
        36 (41.4 %)     37 (39.7 %)     38 (35.9 %)     39 (63.3 %)
        40 (8.4 %)      41 (34.9 %)     42 (29.8 %)     43 (10.9 %)
        44 (9.9 %)      45 (3.5 %)      46 (17.7 %)     47 (40.0 %)
        Total: 1385.3%
Initial condition solution time: CPU = 2.386 ms, elapsed = 2.38705 ms.
Intrinsic tran analysis time:    CPU = 406.657 ms, elapsed = 408.089 ms.
Total time required for tran analysis `tran': CPU = 411.265 ms, elapsed = 413.314 ms, util. = 99.5%.
Time accumulated: CPU = 4.10316 s, elapsed = 4.72048 s.
Peak resident memory used = 213 Mbytes.


Notice from spectre during transient analysis `tran', during Monte Carlo analysis `mc1'.
    34 warnings suppressed.

finalTimeOP: writing operating point information to rawfile.

Opening the PSF file ../psf/mc1_separate/007/finalTimeOP.info ...
modelParameter: writing model parameter values to rawfile.

Opening the PSF file ../psf/mc1_separate/007/modelParameter.info ...
element: writing instance parameter values to rawfile.

Opening the PSF file ../psf/mc1_separate/007/element.info ...
outputParameter: writing output parameter values to rawfile.

Opening the PSF file ../psf/mc1_separate/007/outputParameter.info ...
designParamVals: writing netlist parameters to rawfile.

Opening the PSFASCII file ../psf/mc1_separate/007/designParamVals.info ...
primitives: writing primitives to rawfile.

Opening the PSFASCII file ../psf/mc1_separate/007/primitives.info.primitives ...
subckts: writing subcircuits to rawfile.

Opening the PSFASCII file ../psf/mc1_separate/007/subckts.info.subckts ...
    mc1: iteration = 7           (6.06 %), step = 1            (1.01 %)
8   7.07% 

*****************************************************************************************
* 
* INFO: AMS_processOption = C35B4C3
* 
* INFO: Valid Modules  PIP VG5 HIRES
* 
*****************************************************************************************


Notice from spectre during Monte Carlo analysis `mc1'.
    V8: `period' has the unusually large value of 100 s.


***********************************************
Transient Analysis `tran': time = (0 s -> 50 s)
***********************************************

Opening the PSF file ../psf/mc1_separate/008/tran.tran.tran ...

Warning from spectre during check, during IC analysis, during transient analysis `tran', during Monte Carlo analysis `mc1'.
    WARNING (CMI-2943): Parameter checks have been ignored because the valid value for parameter 'trise' could not be found in 'C1'.
    WARNING (CMI-2943): Parameter checks have been ignored because the valid value for parameter 'trise' could not be found in 'I0.R2.CM'.
    WARNING (CMI-2943): Parameter checks have been ignored because the valid value for parameter 'trise' could not be found in 'I0.R2.CS1'.
    WARNING (CMI-2943): Parameter checks have been ignored because the valid value for parameter 'trise' could not be found in 'I0.R2.CS0'.
    WARNING (CMI-2943): Parameter checks have been ignored because the valid value for parameter 'trise' could not be found in 'I0.C3.C1'.
        Further occurrences of this warning will be suppressed.

Convergence achieved in 12 iterations.
DC simulation time: CPU = 2.252 ms, elapsed = 2.25282 ms.
Important parameter values:
    start = 0 s
    outputstart = 0 s
    stop = 50 s
    step = 50 ms
    maxstep = 500 ms
    ic = all
    useprevic = no
    skipdc = no
    reltol = 10e-06
    abstol(V) = 1 uV
    abstol(I) = 1 pA
    temp = -40 C
    tnom = 27 C
    tempeffects = all
    errpreset = conservative
    method = gear2only
    lteratio = 10
    relref = alllocal
    cmin = 0 F
    gmin = 1 pS
    rabsshort = 1 mOhm


Notice from spectre during transient analysis `tran', during Monte Carlo analysis `mc1'.
    Multithreading is disabled due to the size of the design being too small.


Output and IC/nodeset summary:
                 save   8       (current)
                 save   87      (voltage)

    tran: time = 1.336 s     (2.67 %), step = 93.85 ms     (188 m%)
    tran: time = 3.898 s      (7.8 %), step = 372.2 ms     (744 m%)
    tran: time = 6.269 s     (12.5 %), step = 500 ms          (1 %)
    tran: time = 8.769 s     (17.5 %), step = 500 ms          (1 %)
    tran: time = 11.27 s     (22.5 %), step = 500 ms          (1 %)
    tran: time = 13.77 s     (27.5 %), step = 500 ms          (1 %)
    tran: time = 16.27 s     (32.5 %), step = 500 ms          (1 %)
    tran: time = 18.77 s     (37.5 %), step = 500 ms          (1 %)
    tran: time = 21.27 s     (42.5 %), step = 500 ms          (1 %)
    tran: time = 23.77 s     (47.5 %), step = 500 ms          (1 %)
    tran: time = 26.27 s     (52.5 %), step = 500 ms          (1 %)
    tran: time = 28.77 s     (57.5 %), step = 500 ms          (1 %)
    tran: time = 31.27 s     (62.5 %), step = 500 ms          (1 %)
    tran: time = 33.77 s     (67.5 %), step = 500 ms          (1 %)
    tran: time = 36.27 s     (72.5 %), step = 500 ms          (1 %)
    tran: time = 38.77 s     (77.5 %), step = 500 ms          (1 %)
    tran: time = 41.27 s     (82.5 %), step = 500 ms          (1 %)
    tran: time = 43.77 s     (87.5 %), step = 500 ms          (1 %)
    tran: time = 46.27 s     (92.5 %), step = 500 ms          (1 %)
    tran: time = 48.77 s     (97.5 %), step = 500 ms          (1 %)
Number of accepted tran steps =             747

Maximum value achieved for any signal of each quantity: 
V: V(vout) = 3.3 V
I: I(V8:p) = 6.483 uA

~~~~~~~~~~~~~~~~~~~~~~~~~~~~~~~~~
Post-Transient Simulation Summary
~~~~~~~~~~~~~~~~~~~~~~~~~~~~~~~~~
   -   To further speed up simulation, consider
          add ++aps on command line
   -   Non-default settings that could significantly slow down simulation
          errpreset = conservative, default moderate
          reltol = 10e-06, default 100e-06 (conservative)
~~~~~~~~~~~~~~~~~~~~~~~~~~~~~~~~~


During simulation, the CPU load for active processors is :
         0 (17.6 %)      1 (18.9 %)      2 (16.9 %)      3 (55.3 %)
         4 (86.2 %)      5 (40.0 %)      6 (5.8 %)       7 (5.8 %)
         8 (4.2 %)       9 (77.9 %)     10 (14.4 %)     11 (10.3 %)
        12 (28.7 %)     13 (37.7 %)     14 (36.5 %)     15 (27.8 %)
        16 (26.7 %)     17 (8.0 %)      18 (27.6 %)     19 (57.0 %)
        20 (16.6 %)     21 (24.5 %)     22 (36.1 %)     23 (21.7 %)
        24 (5.4 %)      25 (18.5 %)     26 (4.6 %)      27 (46.1 %)
        28 (4.6 %)      29 (100.0 %)    30 (3.6 %)      31 (25.8 %)
        32 (25.7 %)     33 (46.9 %)     34 (57.8 %)     35 (5.4 %)
        36 (45.9 %)     37 (36.2 %)     38 (32.7 %)     39 (66.3 %)
        40 (7.6 %)      41 (40.7 %)     42 (28.0 %)     43 (9.9 %)
        44 (9.0 %)      45 (3.4 %)      46 (16.2 %)     47 (36.6 %)
        Total: 1379.1%
Initial condition solution time: CPU = 2.295 ms, elapsed = 2.29692 ms.
Intrinsic tran analysis time:    CPU = 407.869 ms, elapsed = 409.282 ms.
Total time required for tran analysis `tran': CPU = 412.525 ms, elapsed = 414.487 ms, util. = 99.5%.
Time accumulated: CPU = 4.5525 s, elapsed = 5.18235 s.
Peak resident memory used = 213 Mbytes.


Notice from spectre during transient analysis `tran', during Monte Carlo analysis `mc1'.
    34 warnings suppressed.

finalTimeOP: writing operating point information to rawfile.

Opening the PSF file ../psf/mc1_separate/008/finalTimeOP.info ...
modelParameter: writing model parameter values to rawfile.

Opening the PSF file ../psf/mc1_separate/008/modelParameter.info ...
element: writing instance parameter values to rawfile.

Opening the PSF file ../psf/mc1_separate/008/element.info ...
outputParameter: writing output parameter values to rawfile.

Opening the PSF file ../psf/mc1_separate/008/outputParameter.info ...
designParamVals: writing netlist parameters to rawfile.

Opening the PSFASCII file ../psf/mc1_separate/008/designParamVals.info ...
primitives: writing primitives to rawfile.

Opening the PSFASCII file ../psf/mc1_separate/008/primitives.info.primitives ...
subckts: writing subcircuits to rawfile.

Opening the PSFASCII file ../psf/mc1_separate/008/subckts.info.subckts ...
    mc1: iteration = 8           (7.07 %), step = 1            (1.01 %)
9   8.08% 

*****************************************************************************************
* 
* INFO: AMS_processOption = C35B4C3
* 
* INFO: Valid Modules  PIP VG5 HIRES
* 
*****************************************************************************************


Notice from spectre during Monte Carlo analysis `mc1'.
    V8: `period' has the unusually large value of 100 s.


***********************************************
Transient Analysis `tran': time = (0 s -> 50 s)
***********************************************

Opening the PSF file ../psf/mc1_separate/009/tran.tran.tran ...

Warning from spectre during check, during IC analysis, during transient analysis `tran', during Monte Carlo analysis `mc1'.
    WARNING (CMI-2943): Parameter checks have been ignored because the valid value for parameter 'trise' could not be found in 'C1'.
    WARNING (CMI-2943): Parameter checks have been ignored because the valid value for parameter 'trise' could not be found in 'I0.R2.CM'.
    WARNING (CMI-2943): Parameter checks have been ignored because the valid value for parameter 'trise' could not be found in 'I0.R2.CS1'.
    WARNING (CMI-2943): Parameter checks have been ignored because the valid value for parameter 'trise' could not be found in 'I0.R2.CS0'.
    WARNING (CMI-2943): Parameter checks have been ignored because the valid value for parameter 'trise' could not be found in 'I0.C3.C1'.
        Further occurrences of this warning will be suppressed.

Convergence achieved in 12 iterations.
DC simulation time: CPU = 2.22 ms, elapsed = 2.21896 ms.
Important parameter values:
    start = 0 s
    outputstart = 0 s
    stop = 50 s
    step = 50 ms
    maxstep = 500 ms
    ic = all
    useprevic = no
    skipdc = no
    reltol = 10e-06
    abstol(V) = 1 uV
    abstol(I) = 1 pA
    temp = -40 C
    tnom = 27 C
    tempeffects = all
    errpreset = conservative
    method = gear2only
    lteratio = 10
    relref = alllocal
    cmin = 0 F
    gmin = 1 pS
    rabsshort = 1 mOhm


Notice from spectre during transient analysis `tran', during Monte Carlo analysis `mc1'.
    Multithreading is disabled due to the size of the design being too small.


Output and IC/nodeset summary:
                 save   8       (current)
                 save   87      (voltage)

    tran: time = 1.319 s     (2.64 %), step = 74.39 ms     (149 m%)
    tran: time = 4.052 s      (8.1 %), step = 371.7 ms     (743 m%)
    tran: time = 6.414 s     (12.8 %), step = 500 ms          (1 %)
    tran: time = 8.914 s     (17.8 %), step = 500 ms          (1 %)
    tran: time = 11.41 s     (22.8 %), step = 500 ms          (1 %)
    tran: time = 13.91 s     (27.8 %), step = 500 ms          (1 %)
    tran: time = 16.41 s     (32.8 %), step = 500 ms          (1 %)
    tran: time = 18.91 s     (37.8 %), step = 500 ms          (1 %)
    tran: time = 21.41 s     (42.8 %), step = 500 ms          (1 %)
    tran: time = 23.91 s     (47.8 %), step = 500 ms          (1 %)
    tran: time = 26.41 s     (52.8 %), step = 500 ms          (1 %)
    tran: time = 28.91 s     (57.8 %), step = 500 ms          (1 %)
    tran: time = 31.41 s     (62.8 %), step = 500 ms          (1 %)
    tran: time = 33.91 s     (67.8 %), step = 500 ms          (1 %)
    tran: time = 36.41 s     (72.8 %), step = 500 ms          (1 %)
    tran: time = 38.91 s     (77.8 %), step = 500 ms          (1 %)
    tran: time = 41.41 s     (82.8 %), step = 500 ms          (1 %)
    tran: time = 43.91 s     (87.8 %), step = 500 ms          (1 %)
    tran: time = 46.41 s     (92.8 %), step = 500 ms          (1 %)
    tran: time = 48.91 s     (97.8 %), step = 500 ms          (1 %)
Number of accepted tran steps =             752

Maximum value achieved for any signal of each quantity: 
V: V(vout) = 3.3 V
I: I(V8:p) = 6.314 uA

~~~~~~~~~~~~~~~~~~~~~~~~~~~~~~~~~
Post-Transient Simulation Summary
~~~~~~~~~~~~~~~~~~~~~~~~~~~~~~~~~
   -   To further speed up simulation, consider
          add ++aps on command line
   -   Non-default settings that could significantly slow down simulation
          errpreset = conservative, default moderate
          reltol = 10e-06, default 100e-06 (conservative)
~~~~~~~~~~~~~~~~~~~~~~~~~~~~~~~~~


During simulation, the CPU load for active processors is :
         0 (17.8 %)      1 (17.6 %)      2 (15.7 %)      3 (58.6 %)
         4 (79.2 %)      5 (37.0 %)      6 (6.9 %)       7 (5.5 %)
         8 (4.0 %)       9 (79.8 %)     10 (13.2 %)     11 (9.6 %)
        12 (27.0 %)     13 (36.1 %)     14 (34.1 %)     15 (33.2 %)
        16 (32.5 %)     17 (8.4 %)      18 (25.7 %)     19 (60.5 %)
        20 (15.2 %)     21 (24.7 %)     22 (33.3 %)     23 (19.9 %)
        24 (5.1 %)      25 (17.5 %)     26 (4.4 %)      27 (43.0 %)
        28 (4.5 %)      29 (100.0 %)    30 (3.5 %)      31 (23.7 %)
        32 (32.0 %)     33 (51.1 %)     34 (55.7 %)     35 (5.2 %)
        36 (50.5 %)     37 (33.5 %)     38 (30.0 %)     39 (68.9 %)
        40 (7.2 %)      41 (45.6 %)     42 (26.1 %)     43 (9.1 %)
        44 (8.4 %)      45 (3.1 %)      46 (15.2 %)     47 (33.6 %)
        Total: 1372.5%
Initial condition solution time: CPU = 2.255 ms, elapsed = 2.25711 ms.
Intrinsic tran analysis time:    CPU = 409.783 ms, elapsed = 410.874 ms.
Total time required for tran analysis `tran': CPU = 414.356 ms, elapsed = 416.017 ms, util. = 99.6%.
Time accumulated: CPU = 5.0034 s, elapsed = 5.64486 s.
Peak resident memory used = 213 Mbytes.


Notice from spectre during transient analysis `tran', during Monte Carlo analysis `mc1'.
    34 warnings suppressed.

finalTimeOP: writing operating point information to rawfile.

Opening the PSF file ../psf/mc1_separate/009/finalTimeOP.info ...
modelParameter: writing model parameter values to rawfile.

Opening the PSF file ../psf/mc1_separate/009/modelParameter.info ...
element: writing instance parameter values to rawfile.

Opening the PSF file ../psf/mc1_separate/009/element.info ...
outputParameter: writing output parameter values to rawfile.

Opening the PSF file ../psf/mc1_separate/009/outputParameter.info ...
designParamVals: writing netlist parameters to rawfile.

Opening the PSFASCII file ../psf/mc1_separate/009/designParamVals.info ...
primitives: writing primitives to rawfile.

Opening the PSFASCII file ../psf/mc1_separate/009/primitives.info.primitives ...
subckts: writing subcircuits to rawfile.

Opening the PSFASCII file ../psf/mc1_separate/009/subckts.info.subckts ...
    mc1: iteration = 9           (8.08 %), step = 1            (1.01 %)
10   9.09% 

*****************************************************************************************
* 
* INFO: AMS_processOption = C35B4C3
* 
* INFO: Valid Modules  PIP VG5 HIRES
* 
*****************************************************************************************


Notice from spectre during Monte Carlo analysis `mc1'.
    V8: `period' has the unusually large value of 100 s.


***********************************************
Transient Analysis `tran': time = (0 s -> 50 s)
***********************************************

Opening the PSF file ../psf/mc1_separate/010/tran.tran.tran ...

Warning from spectre during check, during IC analysis, during transient analysis `tran', during Monte Carlo analysis `mc1'.
    WARNING (CMI-2943): Parameter checks have been ignored because the valid value for parameter 'trise' could not be found in 'C1'.
    WARNING (CMI-2943): Parameter checks have been ignored because the valid value for parameter 'trise' could not be found in 'I0.R2.CM'.
    WARNING (CMI-2943): Parameter checks have been ignored because the valid value for parameter 'trise' could not be found in 'I0.R2.CS1'.
    WARNING (CMI-2943): Parameter checks have been ignored because the valid value for parameter 'trise' could not be found in 'I0.R2.CS0'.
    WARNING (CMI-2943): Parameter checks have been ignored because the valid value for parameter 'trise' could not be found in 'I0.C3.C1'.
        Further occurrences of this warning will be suppressed.

Convergence achieved in 12 iterations.
DC simulation time: CPU = 2.32 ms, elapsed = 2.31981 ms.
Important parameter values:
    start = 0 s
    outputstart = 0 s
    stop = 50 s
    step = 50 ms
    maxstep = 500 ms
    ic = all
    useprevic = no
    skipdc = no
    reltol = 10e-06
    abstol(V) = 1 uV
    abstol(I) = 1 pA
    temp = -40 C
    tnom = 27 C
    tempeffects = all
    errpreset = conservative
    method = gear2only
    lteratio = 10
    relref = alllocal
    cmin = 0 F
    gmin = 1 pS
    rabsshort = 1 mOhm


Notice from spectre during transient analysis `tran', during Monte Carlo analysis `mc1'.
    Multithreading is disabled due to the size of the design being too small.


Output and IC/nodeset summary:
                 save   8       (current)
                 save   87      (voltage)

    tran: time = 1.292 s     (2.58 %), step = 107.1 ms     (214 m%)
    tran: time = 3.785 s     (7.57 %), step = 375.7 ms     (751 m%)
    tran: time = 6.662 s     (13.3 %), step = 500 ms          (1 %)
    tran: time = 9.162 s     (18.3 %), step = 500 ms          (1 %)
    tran: time = 11.66 s     (23.3 %), step = 500 ms          (1 %)
    tran: time = 14.16 s     (28.3 %), step = 500 ms          (1 %)
    tran: time = 16.66 s     (33.3 %), step = 500 ms          (1 %)
    tran: time = 19.16 s     (38.3 %), step = 500 ms          (1 %)
    tran: time = 21.66 s     (43.3 %), step = 500 ms          (1 %)
    tran: time = 24.16 s     (48.3 %), step = 500 ms          (1 %)
    tran: time = 26.66 s     (53.3 %), step = 500 ms          (1 %)
    tran: time = 29.16 s     (58.3 %), step = 500 ms          (1 %)
[...]


***********************************************
Transient Analysis `tran': time = (0 s -> 50 s)
***********************************************

Opening the PSF file ../psf/mc1_separate/098/tran.tran.tran ...

Warning from spectre during check, during IC analysis, during transient analysis `tran', during Monte Carlo analysis `mc1'.
    WARNING (CMI-2943): Parameter checks have been ignored because the valid value for parameter 'trise' could not be found in 'C1'.
    WARNING (CMI-2943): Parameter checks have been ignored because the valid value for parameter 'trise' could not be found in 'I0.R2.CM'.
    WARNING (CMI-2943): Parameter checks have been ignored because the valid value for parameter 'trise' could not be found in 'I0.R2.CS1'.
    WARNING (CMI-2943): Parameter checks have been ignored because the valid value for parameter 'trise' could not be found in 'I0.R2.CS0'.
    WARNING (CMI-2943): Parameter checks have been ignored because the valid value for parameter 'trise' could not be found in 'I0.C3.C1'.
        Further occurrences of this warning will be suppressed.

Convergence achieved in 12 iterations.
DC simulation time: CPU = 2.289 ms, elapsed = 2.29001 ms.
Important parameter values:
    start = 0 s
    outputstart = 0 s
    stop = 50 s
    step = 50 ms
    maxstep = 500 ms
    ic = all
    useprevic = no
    skipdc = no
    reltol = 10e-06
    abstol(V) = 1 uV
    abstol(I) = 1 pA
    temp = -40 C
    tnom = 27 C
    tempeffects = all
    errpreset = conservative
    method = gear2only
    lteratio = 10
    relref = alllocal
    cmin = 0 F
    gmin = 1 pS
    rabsshort = 1 mOhm


Notice from spectre during transient analysis `tran', during Monte Carlo analysis `mc1'.
    Multithreading is disabled due to the size of the design being too small.


Output and IC/nodeset summary:
                 save   8       (current)
                 save   87      (voltage)

    tran: time = 1.347 s     (2.69 %), step = 101.4 ms     (203 m%)
    tran: time = 4.121 s     (8.24 %), step = 398.7 ms     (797 m%)
    tran: time = 6.542 s     (13.1 %), step = 500 ms          (1 %)
    tran: time = 9.042 s     (18.1 %), step = 500 ms          (1 %)
    tran: time = 11.54 s     (23.1 %), step = 500 ms          (1 %)
    tran: time = 14.04 s     (28.1 %), step = 500 ms          (1 %)
    tran: time = 16.54 s     (33.1 %), step = 500 ms          (1 %)
    tran: time = 19.04 s     (38.1 %), step = 500 ms          (1 %)
    tran: time = 21.54 s     (43.1 %), step = 500 ms          (1 %)
    tran: time = 24.04 s     (48.1 %), step = 500 ms          (1 %)
    tran: time = 26.54 s     (53.1 %), step = 500 ms          (1 %)
    tran: time = 29.04 s     (58.1 %), step = 500 ms          (1 %)
    tran: time = 31.54 s     (63.1 %), step = 500 ms          (1 %)
    tran: time = 34.04 s     (68.1 %), step = 500 ms          (1 %)
    tran: time = 36.54 s     (73.1 %), step = 500 ms          (1 %)
    tran: time = 39.04 s     (78.1 %), step = 500 ms          (1 %)
    tran: time = 41.54 s     (83.1 %), step = 500 ms          (1 %)
    tran: time = 44.04 s     (88.1 %), step = 500 ms          (1 %)
    tran: time = 46.54 s     (93.1 %), step = 500 ms          (1 %)
    tran: time = 49.04 s     (98.1 %), step = 500 ms          (1 %)
Number of accepted tran steps =             750

Maximum value achieved for any signal of each quantity: 
V: V(vout) = 3.3 V
I: I(V8:p) = 6.333 uA

~~~~~~~~~~~~~~~~~~~~~~~~~~~~~~~~~
Post-Transient Simulation Summary
~~~~~~~~~~~~~~~~~~~~~~~~~~~~~~~~~
   -   To further speed up simulation, consider
          add ++aps on command line
   -   Non-default settings that could significantly slow down simulation
          errpreset = conservative, default moderate
          reltol = 10e-06, default 100e-06 (conservative)
~~~~~~~~~~~~~~~~~~~~~~~~~~~~~~~~~


During simulation, the CPU load for active processors is :
         0 (87.9 %)      1 (21.0 %)      2 (12.2 %)      3 (30.9 %)
         4 (20.6 %)      5 (55.0 %)      6 (15.1 %)      7 (7.3 %)
         8 (8.1 %)       9 (17.6 %)     10 (28.0 %)     11 (6.3 %)
        12 (17.3 %)     13 (26.8 %)     14 (27.1 %)     15 (28.1 %)
        16 (35.7 %)     17 (31.6 %)     18 (31.1 %)     19 (25.2 %)
        20 (18.2 %)     21 (17.9 %)     22 (26.2 %)     23 (27.9 %)
        24 (26.1 %)     25 (28.5 %)     26 (11.4 %)     27 (18.5 %)
        28 (39.6 %)     29 (79.5 %)     30 (20.8 %)     31 (13.0 %)
        32 (17.3 %)     33 (24.0 %)     34 (14.9 %)     35 (19.7 %)
        36 (45.4 %)     37 (40.9 %)     38 (20.1 %)     39 (38.4 %)
        40 (12.7 %)     41 (43.6 %)     42 (41.8 %)     43 (9.8 %)
        44 (24.6 %)     45 (16.2 %)     46 (10.3 %)     47 (30.2 %)
        Total: 1270.4%
Initial condition solution time: CPU = 2.324 ms, elapsed = 2.32601 ms.
Intrinsic tran analysis time:    CPU = 396.593 ms, elapsed = 397.98 ms.
Total time required for tran analysis `tran': CPU = 401.149 ms, elapsed = 403.069 ms, util. = 99.5%.
Time accumulated: CPU = 44.7057 s, elapsed = 46.5407 s.
Peak resident memory used = 214 Mbytes.


Notice from spectre during transient analysis `tran', during Monte Carlo analysis `mc1'.
    34 warnings suppressed.

finalTimeOP: writing operating point information to rawfile.

Opening the PSF file ../psf/mc1_separate/098/finalTimeOP.info ...
modelParameter: writing model parameter values to rawfile.

Opening the PSF file ../psf/mc1_separate/098/modelParameter.info ...
element: writing instance parameter values to rawfile.

Opening the PSF file ../psf/mc1_separate/098/element.info ...
outputParameter: writing output parameter values to rawfile.

Opening the PSF file ../psf/mc1_separate/098/outputParameter.info ...
designParamVals: writing netlist parameters to rawfile.

Opening the PSFASCII file ../psf/mc1_separate/098/designParamVals.info ...
primitives: writing primitives to rawfile.

Opening the PSFASCII file ../psf/mc1_separate/098/primitives.info.primitives ...
subckts: writing subcircuits to rawfile.

Opening the PSFASCII file ../psf/mc1_separate/098/subckts.info.subckts ...
    mc1: iteration = 98            (98 %), step = 1            (1.01 %)
99  98.99% 

*****************************************************************************************
* 
* INFO: AMS_processOption = C35B4C3
* 
* INFO: Valid Modules  PIP VG5 HIRES
* 
*****************************************************************************************


Notice from spectre during Monte Carlo analysis `mc1'.
    V8: `period' has the unusually large value of 100 s.


***********************************************
Transient Analysis `tran': time = (0 s -> 50 s)
***********************************************

Opening the PSF file ../psf/mc1_separate/099/tran.tran.tran ...

Warning from spectre during check, during IC analysis, during transient analysis `tran', during Monte Carlo analysis `mc1'.
    WARNING (CMI-2943): Parameter checks have been ignored because the valid value for parameter 'trise' could not be found in 'C1'.
    WARNING (CMI-2943): Parameter checks have been ignored because the valid value for parameter 'trise' could not be found in 'I0.R2.CM'.
    WARNING (CMI-2943): Parameter checks have been ignored because the valid value for parameter 'trise' could not be found in 'I0.R2.CS1'.
    WARNING (CMI-2943): Parameter checks have been ignored because the valid value for parameter 'trise' could not be found in 'I0.R2.CS0'.
    WARNING (CMI-2943): Parameter checks have been ignored because the valid value for parameter 'trise' could not be found in 'I0.C3.C1'.
        Further occurrences of this warning will be suppressed.

Convergence achieved in 12 iterations.
DC simulation time: CPU = 2.125 ms, elapsed = 2.12598 ms.
Important parameter values:
    start = 0 s
    outputstart = 0 s
    stop = 50 s
    step = 50 ms
    maxstep = 500 ms
    ic = all
    useprevic = no
    skipdc = no
    reltol = 10e-06
    abstol(V) = 1 uV
    abstol(I) = 1 pA
    temp = -40 C
    tnom = 27 C
    tempeffects = all
    errpreset = conservative
    method = gear2only
    lteratio = 10
    relref = alllocal
    cmin = 0 F
    gmin = 1 pS
    rabsshort = 1 mOhm


Notice from spectre during transient analysis `tran', during Monte Carlo analysis `mc1'.
    Multithreading is disabled due to the size of the design being too small.


Output and IC/nodeset summary:
                 save   8       (current)
                 save   87      (voltage)

    tran: time = 1.269 s     (2.54 %), step = 99.61 ms     (199 m%)
    tran: time = 3.98 s      (7.96 %), step = 391.8 ms     (784 m%)
    tran: time = 6.393 s     (12.8 %), step = 500 ms          (1 %)
    tran: time = 8.893 s     (17.8 %), step = 500 ms          (1 %)
    tran: time = 11.39 s     (22.8 %), step = 500 ms          (1 %)
    tran: time = 13.89 s     (27.8 %), step = 500 ms          (1 %)
    tran: time = 16.39 s     (32.8 %), step = 500 ms          (1 %)
    tran: time = 18.89 s     (37.8 %), step = 500 ms          (1 %)
    tran: time = 21.39 s     (42.8 %), step = 500 ms          (1 %)
    tran: time = 23.89 s     (47.8 %), step = 500 ms          (1 %)
    tran: time = 26.39 s     (52.8 %), step = 500 ms          (1 %)
    tran: time = 28.89 s     (57.8 %), step = 500 ms          (1 %)
    tran: time = 31.39 s     (62.8 %), step = 500 ms          (1 %)
    tran: time = 33.89 s     (67.8 %), step = 500 ms          (1 %)
    tran: time = 36.39 s     (72.8 %), step = 500 ms          (1 %)
    tran: time = 38.89 s     (77.8 %), step = 500 ms          (1 %)
    tran: time = 41.39 s     (82.8 %), step = 500 ms          (1 %)
    tran: time = 43.89 s     (87.8 %), step = 500 ms          (1 %)
    tran: time = 46.39 s     (92.8 %), step = 500 ms          (1 %)
    tran: time = 48.89 s     (97.8 %), step = 500 ms          (1 %)
Number of accepted tran steps =             747

Maximum value achieved for any signal of each quantity: 
V: V(vout) = 3.3 V
I: I(V8:p) = 6.277 uA

~~~~~~~~~~~~~~~~~~~~~~~~~~~~~~~~~
Post-Transient Simulation Summary
~~~~~~~~~~~~~~~~~~~~~~~~~~~~~~~~~
   -   To further speed up simulation, consider
          add ++aps on command line
   -   Non-default settings that could significantly slow down simulation
          errpreset = conservative, default moderate
          reltol = 10e-06, default 100e-06 (conservative)
~~~~~~~~~~~~~~~~~~~~~~~~~~~~~~~~~


During simulation, the CPU load for active processors is :
         0 (88.0 %)      1 (21.0 %)      2 (12.1 %)      3 (31.5 %)
         4 (20.4 %)      5 (54.5 %)      6 (15.0 %)      7 (7.4 %)
         8 (8.0 %)       9 (17.4 %)     10 (27.9 %)     11 (6.3 %)
        12 (17.2 %)     13 (26.5 %)     14 (26.9 %)     15 (28.7 %)
        16 (35.5 %)     17 (31.3 %)     18 (31.8 %)     19 (25.0 %)
        20 (18.1 %)     21 (17.7 %)     22 (26.0 %)     23 (27.7 %)
        24 (25.9 %)     25 (28.3 %)     26 (11.3 %)     27 (18.4 %)
        28 (40.2 %)     29 (78.8 %)     30 (20.6 %)     31 (12.9 %)
        32 (17.2 %)     33 (23.8 %)     34 (15.8 %)     35 (19.6 %)
        36 (45.2 %)     37 (40.6 %)     38 (19.9 %)     39 (38.1 %)
        40 (12.6 %)     41 (43.2 %)     42 (42.3 %)     43 (9.7 %)
        44 (24.7 %)     45 (16.0 %)     46 (11.2 %)     47 (30.8 %)
        Total: 1269.0%
Initial condition solution time: CPU = 2.16 ms, elapsed = 2.16103 ms.
Intrinsic tran analysis time:    CPU = 396.227 ms, elapsed = 398.226 ms.
Total time required for tran analysis `tran': CPU = 400.514 ms, elapsed = 403.248 ms, util. = 99.3%.
Time accumulated: CPU = 45.141 s, elapsed = 46.9906 s.
Peak resident memory used = 214 Mbytes.


Notice from spectre during transient analysis `tran', during Monte Carlo analysis `mc1'.
    34 warnings suppressed.

finalTimeOP: writing operating point information to rawfile.

Opening the PSF file ../psf/mc1_separate/099/finalTimeOP.info ...
modelParameter: writing model parameter values to rawfile.

Opening the PSF file ../psf/mc1_separate/099/modelParameter.info ...
element: writing instance parameter values to rawfile.

Opening the PSF file ../psf/mc1_separate/099/element.info ...
outputParameter: writing output parameter values to rawfile.

Opening the PSF file ../psf/mc1_separate/099/outputParameter.info ...
designParamVals: writing netlist parameters to rawfile.

Opening the PSFASCII file ../psf/mc1_separate/099/designParamVals.info ...
primitives: writing primitives to rawfile.

Opening the PSFASCII file ../psf/mc1_separate/099/primitives.info.primitives ...
subckts: writing subcircuits to rawfile.

Opening the PSFASCII file ../psf/mc1_separate/099/subckts.info.subckts ...
    mc1: iteration = 99            (99 %), step = 1            (1.01 %)
100 100.00% 

*****************************************************************************************
* 
* INFO: AMS_processOption = C35B4C3
* 
* INFO: Valid Modules  PIP VG5 HIRES
* 
*****************************************************************************************


Notice from spectre during Monte Carlo analysis `mc1'.
    V8: `period' has the unusually large value of 100 s.


***********************************************
Transient Analysis `tran': time = (0 s -> 50 s)
***********************************************

Opening the PSF file ../psf/mc1_separate/100/tran.tran.tran ...

Warning from spectre during check, during IC analysis, during transient analysis `tran', during Monte Carlo analysis `mc1'.
    WARNING (CMI-2943): Parameter checks have been ignored because the valid value for parameter 'trise' could not be found in 'C1'.
    WARNING (CMI-2943): Parameter checks have been ignored because the valid value for parameter 'trise' could not be found in 'I0.R2.CM'.
    WARNING (CMI-2943): Parameter checks have been ignored because the valid value for parameter 'trise' could not be found in 'I0.R2.CS1'.
    WARNING (CMI-2943): Parameter checks have been ignored because the valid value for parameter 'trise' could not be found in 'I0.R2.CS0'.
    WARNING (CMI-2943): Parameter checks have been ignored because the valid value for parameter 'trise' could not be found in 'I0.C3.C1'.
        Further occurrences of this warning will be suppressed.

Convergence achieved in 12 iterations.
DC simulation time: CPU = 2.103 ms, elapsed = 2.105 ms.
Important parameter values:
    start = 0 s
    outputstart = 0 s
    stop = 50 s
    step = 50 ms
    maxstep = 500 ms
    ic = all
    useprevic = no
    skipdc = no
    reltol = 10e-06
    abstol(V) = 1 uV
    abstol(I) = 1 pA
    temp = -40 C
    tnom = 27 C
    tempeffects = all
    errpreset = conservative
    method = gear2only
    lteratio = 10
    relref = alllocal
    cmin = 0 F
    gmin = 1 pS
    rabsshort = 1 mOhm


Notice from spectre during transient analysis `tran', during Monte Carlo analysis `mc1'.
    Multithreading is disabled due to the size of the design being too small.


Output and IC/nodeset summary:
                 save   8       (current)
                 save   87      (voltage)

    tran: time = 1.29 s      (2.58 %), step = 100.2 ms     (200 m%)
    tran: time = 4.018 s     (8.04 %), step = 394.1 ms     (788 m%)
    tran: time = 6.435 s     (12.9 %), step = 500 ms          (1 %)
    tran: time = 8.935 s     (17.9 %), step = 500 ms          (1 %)
    tran: time = 11.43 s     (22.9 %), step = 500 ms          (1 %)
    tran: time = 13.93 s     (27.9 %), step = 500 ms          (1 %)
    tran: time = 16.43 s     (32.9 %), step = 500 ms          (1 %)
    tran: time = 18.93 s     (37.9 %), step = 500 ms          (1 %)
    tran: time = 21.43 s     (42.9 %), step = 500 ms          (1 %)
    tran: time = 23.93 s     (47.9 %), step = 500 ms          (1 %)
    tran: time = 26.43 s     (52.9 %), step = 500 ms          (1 %)
    tran: time = 28.93 s     (57.9 %), step = 500 ms          (1 %)
    tran: time = 31.43 s     (62.9 %), step = 500 ms          (1 %)
    tran: time = 33.93 s     (67.9 %), step = 500 ms          (1 %)
    tran: time = 36.43 s     (72.9 %), step = 500 ms          (1 %)
    tran: time = 38.93 s     (77.9 %), step = 500 ms          (1 %)
    tran: time = 41.43 s     (82.9 %), step = 500 ms          (1 %)
    tran: time = 43.93 s     (87.9 %), step = 500 ms          (1 %)
    tran: time = 46.43 s     (92.9 %), step = 500 ms          (1 %)
    tran: time = 48.93 s     (97.9 %), step = 500 ms          (1 %)
Number of accepted tran steps =             745

Maximum value achieved for any signal of each quantity: 
V: V(vout) = 3.3 V
I: I(V8:p) = 6.666 uA

~~~~~~~~~~~~~~~~~~~~~~~~~~~~~~~~~
Post-Transient Simulation Summary
~~~~~~~~~~~~~~~~~~~~~~~~~~~~~~~~~
   -   To further speed up simulation, consider
          add ++aps on command line
   -   Non-default settings that could significantly slow down simulation
          errpreset = conservative, default moderate
          reltol = 10e-06, default 100e-06 (conservative)
~~~~~~~~~~~~~~~~~~~~~~~~~~~~~~~~~


During simulation, the CPU load for active processors is :
         0 (88.1 %)      1 (20.9 %)      2 (12.0 %)      3 (32.2 %)
         4 (20.4 %)      5 (54.0 %)      6 (14.8 %)      7 (7.3 %)
         8 (7.9 %)       9 (17.2 %)     10 (27.6 %)     11 (6.3 %)
        12 (17.1 %)     13 (26.3 %)     14 (26.7 %)     15 (29.4 %)
        16 (35.2 %)     17 (31.0 %)     18 (31.8 %)     19 (24.9 %)
        20 (18.5 %)     21 (17.7 %)     22 (25.8 %)     23 (27.4 %)
        24 (25.8 %)     25 (28.1 %)     26 (11.3 %)     27 (18.4 %)
        28 (40.7 %)     29 (78.1 %)     30 (20.5 %)     31 (12.8 %)
        32 (17.1 %)     33 (23.8 %)     34 (16.5 %)     35 (19.6 %)
        36 (44.7 %)     37 (40.3 %)     38 (19.7 %)     39 (37.7 %)
        40 (12.6 %)     41 (42.8 %)     42 (42.9 %)     43 (9.6 %)
        44 (24.5 %)     45 (15.9 %)     46 (12.0 %)     47 (31.5 %)
        Total: 1267.7%
Initial condition solution time: CPU = 2.138 ms, elapsed = 2.13885 ms.
Intrinsic tran analysis time:    CPU = 393.592 ms, elapsed = 395.166 ms.
Total time required for tran analysis `tran': CPU = 397.722 ms, elapsed = 399.853 ms, util. = 99.5%.
Time accumulated: CPU = 45.5737 s, elapsed = 47.4372 s.
Peak resident memory used = 214 Mbytes.


Notice from spectre during transient analysis `tran', during Monte Carlo analysis `mc1'.
    34 warnings suppressed.

finalTimeOP: writing operating point information to rawfile.

Opening the PSF file ../psf/mc1_separate/100/finalTimeOP.info ...
modelParameter: writing model parameter values to rawfile.

Opening the PSF file ../psf/mc1_separate/100/modelParameter.info ...
element: writing instance parameter values to rawfile.

Opening the PSF file ../psf/mc1_separate/100/element.info ...
outputParameter: writing output parameter values to rawfile.

Opening the PSF file ../psf/mc1_separate/100/outputParameter.info ...
designParamVals: writing netlist parameters to rawfile.

Opening the PSFASCII file ../psf/mc1_separate/100/designParamVals.info ...
primitives: writing primitives to rawfile.

Opening the PSFASCII file ../psf/mc1_separate/100/primitives.info.primitives ...
subckts: writing subcircuits to rawfile.

Opening the PSFASCII file ../psf/mc1_separate/100/subckts.info.subckts ...
    mc1: iteration = 100          (100 %), step = 1            (1.01 %)
Total time required for montecarlo analysis `mc1': CPU = 45.1812 s, elapsed = 46.534 s, util. = 97.1%.
Time accumulated: CPU = 45.5975 s, elapsed = 47.4751 s.
Peak resident memory used = 214 Mbytes.

Licensing Information:
Lic Summary:
[16:53:00.279642] Cdslmd servers:3000@lic08.ug.kth.se:29000@lic06.ug.kth.se
[16:53:00.803961] Feature usage summary:
[16:53:00.803962] Virtuoso_Multi_mode_Simulation


Aggregate audit (4:53:00 PM, Wed Apr 15, 2026):
Time used: CPU = 45.6 s, elapsed = 47.5 s, util. = 96%.
Time spent in licensing: elapsed = 49.1 ms.
Peak memory used = 214 Mbytes.
Simulation started at: 4:52:13 PM, Wed Apr 15, 2026, ended at: 4:53:00 PM, Wed Apr 15, 2026, with elapsed time (wall clock): 47.5 s.
spectre completes with 0 errors, 522 warnings, and 310 notices.
