
Spectre (R) Circuit Simulator
Version 24.1.0.288.isr5 64bit -- 3 Apr 2025
Copyright (C) 1989-2025 Cadence Design Systems, Inc. All rights reserved worldwide. Cadence and Spectre are registered trademarks of Cadence Design Systems, Inc. All others are the property of their respective holders.

Includes RSA BSAFE(R) Cryptographic or Security Protocol Software from RSA Security, Inc.

User: davidevi   Host: il2244vt26_davidevi   HostID: 11AC2C00   PID: 1052159
Memory  available: 3.0407 TB  physical: 3.2467 TB
Linux   : Rocky Linux release 8.10 (Green Obsidian)
CPU Type: Intel(R) Xeon(R) CPU E7-8857 v2 @ 3.00GHz
        Socket: Processors [Frequency]
        0:       0 [3000.0],  1 [1200.0],  2 [2200.0],  3 [1200.0],  4 [1200.0]
                 5 [1500.0],  6 [3600.0],  7 [3000.0],  8 [1200.0],  9 [3400.0]
                10 [1200.0], 11 [2999.9]
        1:      12 [3600.0], 13 [1200.0], 14 [1200.0], 15 [1200.0], 16 [1200.0]
                17 [1200.0], 18 [1200.0], 19 [1200.0], 20 [2999.9], 21 [1200.0]
                22 [2999.9], 23 [2999.9]
        2:      24 [1200.0], 25 [1200.0], 26 [1200.0], 27 [1200.0], 28 [1200.0]
                29 [2300.0], 30 [3455.9], 31 [3456.0], 32 [1200.0], 33 [3600.0]
                34 [1200.0], 35 [1200.0]
        3:      36 [2999.9], 37 [2300.0], 38 [1500.0], 39 [2999.9], 40 [2500.0]
                41 [2999.9], 42 [2600.0], 43 [1200.0], 44 [1200.0], 45 [1500.0]
                46 [1200.0], 47 [2700.0]
        
System load averages (1min, 5min, 15min) : 26.9 %, 21.6 %, 17.8 %
HPC is enabled


Simulating `input.scs' on il2244vt26_davidevi at 9:09:25 AM, Thur Apr 16, 2026 (process id: 1052159).
Current working directory: /home/davidevi/Desktop/myproject/Sim/VGA/VGA_1_tb/adexl/results/data/MonteCarlo.3/14/Linerity_MC/groupRunDataDir/netlist
Command line:
    /opt/tools/cadence/installs/SPECTRE241/tools/bin/spectre -64  \
        input.scs +escchars +log ../psf/spectre.out -format psfbin  \
        +rtsf -raw ../psf +aps +mt +lqtimeout 900 -maxw 5 -maxn 5  \
        +param /opt/pdk/ams/410/spectre/ams_range.lmts -env ade  \
        -ahdllibdir  \
        /home/davidevi/Desktop/myproject/Sim/VGA/VGA_1_tb/adexl/results/data/MonteCarlo.3/sharedData/Job472/ahdl/input.ahdlSimDB  \
        +logstatus  \
        +adespetkn=0001089D13A302B663E41FB550AF0DF415A679A322D5069144BF588C12F604E07EF416DC01A319B562BB63D376F130B845A32CCA1BA704BA04D463DE6BFB4F925EF079D15D9175FF34986BDD0AF002BA50FD7FD707E002A700AC1C8412F74CEA0EA979D121F874D3349879D118F874D334981031BFBCD3975D78000036AA

Simulation Id: Dks6eW0LpiHBpgjh
Licensing Information:
[09:09:25.121802] Configured Lic search path (24.01-s002): 3000@lic08.ug.kth.se:29000@lic06.ug.kth.se

Licensing Information:
[09:09:25.167881] Periodic Lic check successful

Loading /opt/tools/cadence/installs/SPECTRE241/tools.lnx86/cmi/lib/64bit/5.0/libinfineon_sh.so ...
Loading /opt/tools/cadence/installs/SPECTRE241/tools.lnx86/cmi/lib/64bit/5.0/libphilips_I_sh.so ...
Loading /opt/tools/cadence/installs/SPECTRE241/tools.lnx86/cmi/lib/64bit/5.0/libphilips_sh.so ...
Loading /opt/tools/cadence/installs/SPECTRE241/tools.lnx86/cmi/lib/64bit/5.0/libsparam_sh.so ...
Loading /opt/tools/cadence/installs/SPECTRE241/tools.lnx86/cmi/lib/64bit/5.0/libstmodels_sh.so ...

Warning from spectre.
    WARNING (SPECTRE-691): This CPU processor does not support x86 advanced vector extensions instructions. This may affect math operations and slow down the simulation.

Reading file:  /home/davidevi/Desktop/myproject/Sim/VGA/VGA_1_tb/adexl/results/data/MonteCarlo.3/14/Linerity_MC/groupRunDataDir/netlist/input.scs
Reading file:  /opt/pdk/ams/410/spectre/ams_range.lmts

Warning from spectre during read of parameter soft limits file `/opt/pdk/ams/410/spectre/ams_range.lmts', during circuit read-in.
    WARNING (SPECTRE-8360): line 1511: `ac' is an undefined primitive device.
    WARNING (SPECTRE-8360): line 1512: `ac' is an undefined primitive device.
    WARNING (SPECTRE-8360): line 1513: `ac' is an undefined primitive device.
    WARNING (SPECTRE-8360): line 1514: `ac' is an undefined primitive device.
    WARNING (SPECTRE-8360): line 1515: `ac' is an undefined primitive device.
        Further occurrences of this warning will be suppressed.

Reading file:  /opt/tools/cadence/installs/SPECTRE241/tools.lnx86/spectre/etc/configs/spectre.cfg
Reading file:  /opt/pdk/ams/410/spectre/c35/soac/soac.scs
Reading file:  /opt/pdk/ams/410/spectre/c35/soac/processOption.scs
Reading file:  /opt/pdk/ams/410/spectre/c35/soac/process.scs
Reading file:  /opt/pdk/ams/410/spectre/c35/soac/soac.va

Warning from spectre during AHDL read-in.
    WARNING (VACOMP-2435): The environment variable CDS_AHDLCMI_ENABLE is no longer supported. Therefore, the simulator will use the default compiled C code flow.

Reading link:  /opt/tools/cadence/installs/SPECTRE241/tools.lnx86/spectre/etc/ahdl/constants.h
Reading file:  /opt/tools/cadence/installs/SPECTRE241/tools.lnx86/spectre/etc/ahdl/constants.vams
Reading link:  /opt/tools/cadence/installs/SPECTRE241/tools.lnx86/spectre/etc/ahdl/discipline.h
Reading file:  /opt/tools/cadence/installs/SPECTRE241/tools.lnx86/spectre/etc/ahdl/disciplines.vams
Reading file:  /opt/pdk/ams/410/spectre/c35/processOption/C35B4C3.scs
Reading file:  /opt/pdk/ams/410/spectre/c35/soac/cmos53.scs
Reading file:  /opt/pdk/ams/410/spectre/c35/soac/res.scs
Reading file:  /opt/pdk/ams/410/spectre/c35/soac/cap.scs
Reading file:  /opt/pdk/ams/410/spectre/c35/soac/bip.scs
Reading file:  /opt/pdk/ams/410/spectre/c35/soac/ind.scs
Reading file:  /opt/pdk/ams/410/spectre/c35/soac/esddiode.scs
Time for NDB Parsing: CPU = 184.716 ms, elapsed = 351.689 ms.
Time accumulated: CPU = 376.297 ms, elapsed = 351.692 ms.
Peak resident memory used = 175 Mbytes.

Existing shared object for module modn_ahdl is up to date.
Installed compiled interface for modn_ahdl.
Existing shared object for module modp_ahdl is up to date.
Installed compiled interface for modp_ahdl.
Existing shared object for module cpoly_ahdl is up to date.
Installed compiled interface for cpoly_ahdl.
Existing shared object for module rpolyh_ahdl is up to date.
Installed compiled interface for rpolyh_ahdl.
Existing shared object for module bsource_19b458 is up to date.
Installed compiled interface for bsource_19b458.
Time for Elaboration: CPU = 61.3 ms, elapsed = 63.751 ms.
Time accumulated: CPU = 437.779 ms, elapsed = 415.623 ms.
Peak resident memory used = 188 Mbytes.


Notice from spectre during hierarchy flattening.
    The value 'psf' specified for the 'checklimitdest' option will no longer be supported in future releases. Use 'spectre -h' to see other recommended values for the 'checklimitdest' option.


*****************************************************************************************
* 
* INFO: AMS_processOption = C35B4C3
* 
* INFO: Valid Modules  PIP VG5 HIRES
* 
*****************************************************************************************


Time for EDB Visiting: CPU = 8.748 ms, elapsed = 8.74686 ms.
Time accumulated: CPU = 446.659 ms, elapsed = 424.501 ms.
Peak resident memory used = 191 Mbytes.

Loading /opt/tools/cadence/installs/SPECTRE241/tools.lnx86/mdl/lib/64bit/libSpectreEH_sh.so ...

Warning from spectre during initial setup.
    WARNING (SPECTRE-16460): SOAC_cvarm_vspsub:Specified subcircuit master `cvarm' was not found.
    WARNING (SPECTRE-16462): SOAC_cvarm_vspsub:Error in specification of subcircuit master. Assert is ignored.
    WARNING (SPECTRE-16460): SOAC_cvarm_vbs:Specified subcircuit master `cvarm' was not found.
    WARNING (SPECTRE-16462): SOAC_cvarm_vbs:Error in specification of subcircuit master. Assert is ignored.
    WARNING (SPECTRE-16460): SOAC_cvarm_vgb:Specified subcircuit master `cvarm' was not found.
    WARNING (SPECTRE-16462): SOAC_cvarm_vgb:Error in specification of subcircuit master. Assert is ignored.
    WARNING (SPECTRE-16460): SOAC_cvart_vspsub:Specified subcircuit master `cvart' was not found.
    WARNING (SPECTRE-16462): SOAC_cvart_vspsub:Error in specification of subcircuit master. Assert is ignored.
    WARNING (SPECTRE-16460): SOAC_cvart_vbs:Specified subcircuit master `cvart' was not found.
        Further occurrences of this warning will be suppressed.
    WARNING (SPECTRE-16462): SOAC_cvart_vbs:Error in specification of subcircuit master. Assert is ignored.
        Further occurrences of this warning will be suppressed.
Notice from spectre during topology check.
    Only one connection to the following 54 nodes:
        I0.MN6.psub!
        I0.MN5.psub!
        I0.MN4.psub!
        I0.MN3.psub!
        I0.MN2.psub!
        Further occurrences of this notice will be suppressed.
Notice from spectre during initial setup.
    Multithreading is disabled due to the size of the design being too small.


Netlist title:
        // Point Netlist Generated on: Apr 16 09:09:25 2026


Global user options:
         psfversion = 1.4.0
            vabstol = 1e-06
            iabstol = 1e-12
               temp = -40
           homotopy = 5
              limit = delta
         compatible = spice2
               gmin = 1e-12
             rforce = 1
           maxnotes = 5
           maxwarns = 5
             digits = 5
               cols = 80
             pivrel = 0.001
           sensfile = ../psf/sens.output
     checklimitdest = psf
     enable_pre_ver = yes
      ignorezerovar = yes
               save = allpub
             reltol = 0.0001
               tnom = 27
             scalem = 1
              scale = 1

Scoped user options:

Circuit inventory:
              nodes 88
            bsim3v3 35    
     bsource_19b458 2     
          capacitor 38    
         cpoly_ahdl 17    
            isource 1     
          modn_ahdl 19    
          modp_ahdl 16    
           resistor 1     
        rpolyh_ahdl 2     
            vsource 8     

Analysis and control statement inventory:
                 dc 1     
               info 8     
         montecarlo 1     
               tran 1     

Output statements:
             .probe 0     
           .measure 0     
               save 0     

Design checks inventory:
          paramtest 55    
             assert 175   


Notice from spectre during initial setup.
    APS enabled.
    1 notice suppressed.
    72 warnings suppressed.

Time for parsing: CPU = 19.581 ms, elapsed = 637.4 ms.
Time accumulated: CPU = 466.351 ms, elapsed = 1.06201 s.
Peak resident memory used = 198 Mbytes.

~~~~~~~~~~~~~~~~~~~~~~
Pre-Simulation Summary
~~~~~~~~~~~~~~~~~~~~~~
   -   (APS) Multi-threading. The recommended number of threads is 1, consider adding +mt=1 on command line.
~~~~~~~~~~~~~~~~~~~~~~

*************************************************
Monte Carlo Analysis `mc1': iteration = (1 -> 50)
*************************************************
Important parameter values:
    seed = 12345
    sampling = lds
    variations = all
    firstrun = 1
    numruns = 50
    nullmfactorcorrelation = no
    donominal = yes
    method = standard

**** Performing nominal run for `mc1'

******************
DC Analysis `dcOp'
******************

Notice from spectre during DC analysis `dcOp', during Monte Carlo analysis `mc1'.
    No checklimit analysis defined for asserts. A default checklimit analysis 'SpectreChecklimitAnal' has been created with all asserts enabled.


Opening the PSF file ../psf/nom/dcOp.dc ...
Important parameter values:
    reltol = 100e-06
    abstol(V) = 1 uV
    abstol(I) = 1 pA
    temp = -40 C
    tnom = 27 C
    tempeffects = all
    gmindc = 1 pS
    rabsshort = 1 mOhm

Notice from spectre during DC analysis `dcOp', during Monte Carlo analysis `mc1'.
    GminDC = 1 pS is large enough to noticeably affect the DC solution.
        dV(vout) = -223.642 uV
        Use the `gmin_check' option to eliminate or expand this report.
    Bad pivoting is found during DC analysis. Option dc_pivot_check=yes is recommended for possible improvement of convergence.


Maximum value achieved for any signal of each quantity: 
V: V(S<0>) = 3.3 V
I: I(V0:p) = 6.468 uA
Maximum value of each quantity, excluding Verilog-A modules or dangling current sources:
V: V(vout_filt) = 1.6 V
I: I(V0:p) = 6.468 uA

Warning from spectre during check, during DC analysis `dcOp', during Monte Carlo analysis `mc1'.
    WARNING (CMI-2943): Parameter checks have been ignored because the valid value for parameter 'trise' could not be found in 'C1'.
    WARNING (CMI-2943): Parameter checks have been ignored because the valid value for parameter 'trise' could not be found in 'I0.R2.CM'.
    WARNING (CMI-2943): Parameter checks have been ignored because the valid value for parameter 'trise' could not be found in 'I0.R2.CS1'.
    WARNING (CMI-2943): Parameter checks have been ignored because the valid value for parameter 'trise' could not be found in 'I0.R2.CS0'.
    WARNING (CMI-2943): Parameter checks have been ignored because the valid value for parameter 'trise' could not be found in 'I0.C8<3>.C1'.
        Further occurrences of this warning will be suppressed.

Convergence achieved in 19 iterations.
DC simulation time: CPU = 87.757 ms, elapsed = 93.0991 ms.
Total time required for dc analysis `dcOp': CPU = 87.853 ms, elapsed = 93.195 ms, util. = 94.3%.
Time accumulated: CPU = 579.279 ms, elapsed = 1.18146 s.
Peak resident memory used = 207 Mbytes.


Notice from spectre during Monte Carlo analysis `mc1'.
    34 warnings suppressed.

dcOpInfo: writing operating point information to rawfile.

Opening the PSF file ../psf/nom/dcOpInfo.info ...

************************************************
Transient Analysis `tran': time = (0 s -> 40 ms)
************************************************

Notice from spectre during IC analysis, during transient analysis `tran', during Monte Carlo analysis `mc1'.
    GminDC = 1 pS is large enough to noticeably affect the DC solution.
        dV(vout) = -223.642 uV
        Use the `gmin_check' option to eliminate or expand this report.
    Bad pivoting is found during DC analysis. Option dc_pivot_check=yes is recommended for possible improvement of convergence.
Warning from spectre during check, during IC analysis, during transient analysis `tran', during Monte Carlo analysis `mc1'.
    WARNING (CMI-2943): Parameter checks have been ignored because the valid value for parameter 'trise' could not be found in 'C1'.
    WARNING (CMI-2943): Parameter checks have been ignored because the valid value for parameter 'trise' could not be found in 'I0.R2.CM'.
    WARNING (CMI-2943): Parameter checks have been ignored because the valid value for parameter 'trise' could not be found in 'I0.R2.CS1'.
    WARNING (CMI-2943): Parameter checks have been ignored because the valid value for parameter 'trise' could not be found in 'I0.R2.CS0'.
    WARNING (CMI-2943): Parameter checks have been ignored because the valid value for parameter 'trise' could not be found in 'I0.C8<3>.C1'.
        Further occurrences of this warning will be suppressed.

Convergence achieved in 2 iterations.
DC simulation time: CPU = 1.18 ms, elapsed = 1.17993 ms.

Opening the PSF file ../psf/nom/tran.tran.tran ...
Important parameter values:
    start = 0 s
    outputstart = 0 s
    stop = 40 ms
    step = 40 us
    maxstep = 400 us
    ic = all
    useprevic = no
    skipdc = no
    reltol = 10e-06
    abstol(V) = 1 uV
    abstol(I) = 1 pA
    temp = -40 C
    tnom = 27 C
    tempeffects = all
    errpreset = conservative
    method = gear2only
    lteratio = 10
    relref = alllocal
    cmin = 0 F
    gmin = 1 pS
    rabsshort = 1 mOhm


Notice from spectre during transient analysis `tran', during Monte Carlo analysis `mc1'.
    Multithreading is disabled due to the size of the design being too small.


Output and IC/nodeset summary:
                 save   8       (current)
                 save   87      (voltage)

    tran: time = 1.03 ms     (2.57 %), step = 47.69 us     (119 m%)
    tran: time = 3.043 ms    (7.61 %), step = 46.83 us     (117 m%)
    tran: time = 5.01 ms     (12.5 %), step = 49.37 us     (123 m%)
    tran: time = 7.024 ms    (17.6 %), step = 48.18 us     (120 m%)
    tran: time = 9.037 ms    (22.6 %), step = 47.2 us      (118 m%)
    tran: time = 11 ms       (27.5 %), step = 50 us        (125 m%)
    tran: time = 13.02 ms    (32.5 %), step = 48.7 us      (122 m%)
    tran: time = 15.03 ms    (37.6 %), step = 47.6 us      (119 m%)
    tran: time = 17.04 ms    (42.6 %), step = 46.76 us     (117 m%)
    tran: time = 19.01 ms    (47.5 %), step = 49.25 us     (123 m%)
    tran: time = 21.02 ms    (52.6 %), step = 48.08 us     (120 m%)
    tran: time = 23.04 ms    (57.6 %), step = 47.12 us     (118 m%)
    tran: time = 25.01 ms    (62.5 %), step = 49.88 us     (125 m%)
    tran: time = 27.02 ms    (67.5 %), step = 48.59 us     (121 m%)
    tran: time = 29.03 ms    (72.6 %), step = 47.53 us     (119 m%)
    tran: time = 31.05 ms    (77.6 %), step = 46.7 us      (117 m%)
    tran: time = 33.01 ms    (82.5 %), step = 49.15 us     (123 m%)
    tran: time = 35.03 ms    (87.6 %), step = 47.99 us     (120 m%)
    tran: time = 37.04 ms    (92.6 %), step = 47.06 us     (118 m%)
    tran: time = 39.01 ms    (97.5 %), step = 49.77 us     (124 m%)
Number of accepted tran steps =             851

Maximum value achieved for any signal of each quantity: 
V: V(S<0>) = 3.3 V
I: I(V0:p) = 6.469 uA
Maximum value of each quantity, excluding Verilog-A modules or dangling current sources:
V: V(vout_filt) = 1.614 V
I: I(V0:p) = 6.469 uA

~~~~~~~~~~~~~~~~~~~~~~~~~~~~~~~~~
Post-Transient Simulation Summary
~~~~~~~~~~~~~~~~~~~~~~~~~~~~~~~~~
   -   To further speed up simulation, consider
          add ++aps on command line
   -   Non-default settings that could significantly slow down simulation
          errpreset = conservative, default moderate
          reltol = 10e-06, default 100e-06 (conservative)
~~~~~~~~~~~~~~~~~~~~~~~~~~~~~~~~~


During simulation, the CPU load for active processors is :
         0 (7.4 %)       1 (3.8 %)       2 (4.9 %)       3 (50.0 %)
         4 (29.4 %)      5 (10.4 %)      6 (5.0 %)       7 (6.2 %)
         8 (11.0 %)      9 (8.6 %)      10 (2.5 %)      11 (100.0 %)
        12 (17.0 %)     13 (20.7 %)     14 (5.5 %)      15 (77.2 %)
        16 (57.0 %)     17 (15.2 %)     18 (5.5 %)      19 (2.5 %)
        20 (72.0 %)     21 (47.6 %)     22 (32.9 %)     23 (35.2 %)
        24 (6.7 %)      25 (1.8 %)      26 (3.0 %)      29 (1.8 %)
        30 (25.5 %)     31 (100.0 %)    34 (71.3 %)     35 (1.9 %)
        36 (29.9 %)     37 (10.2 %)     38 (6.8 %)      39 (100.0 %)
        40 (30.9 %)     41 (93.9 %)     42 (6.2 %)      43 (6.1 %)
        44 (2.5 %)      45 (3.7 %)      46 (2.5 %)      
        Total: 1135.3%
Initial condition solution time: CPU = 1.213 ms, elapsed = 1.21593 ms.
Intrinsic tran analysis time:    CPU = 515.552 ms, elapsed = 517.3 ms.
Total time required for tran analysis `tran': CPU = 519.389 ms, elapsed = 521.801 ms, util. = 99.5%.
Time accumulated: CPU = 1.10788 s, elapsed = 1.71603 s.
Peak resident memory used = 210 Mbytes.


Notice from spectre during transient analysis `tran', during Monte Carlo analysis `mc1'.
    34 warnings suppressed.

finalTimeOP: writing operating point information to rawfile.

Opening the PSF file ../psf/nom/finalTimeOP.info ...
modelParameter: writing model parameter values to rawfile.

Opening the PSF file ../psf/nom/modelParameter.info ...
element: writing instance parameter values to rawfile.

Opening the PSF file ../psf/nom/element.info ...
outputParameter: writing output parameter values to rawfile.

Opening the PSF file ../psf/nom/outputParameter.info ...
designParamVals: writing netlist parameters to rawfile.

Opening the PSFASCII file ../psf/nom/designParamVals.info ...
primitives: writing primitives to rawfile.

Opening the PSFASCII file ../psf/nom/primitives.info.primitives ...
subckts: writing subcircuits to rawfile.

Opening the PSFASCII file ../psf/nom/subckts.info.subckts ...
Opening iteration number and data-directory mapping file:  /home/davidevi/Desktop/myproject/Sim/VGA/VGA_1_tb/adexl/results/data/MonteCarlo.3/14/Linerity_MC/groupRunDataDir/netlist/../psf/mc1.mapping

Statistical parameters:
    Defined process parameters: 629
    Defined mismatch parameters (subckt based): 86
    Non-referenced mismatch parameters: 80
    Number of random variables: 718
    Gaussian truncation for process parameters: 4.00 sigma
    Gaussian truncation for mismatch parameters: 4.00 sigma


Opening the PSF file ../psf/mc1_dcOp.montecarlo ...

Opening the PSF file ../psf/mc1_dcOpInfo.montecarlo ...

Opening the PSF file ../psf/mc1_tran.montecarlo ...

Opening the PSF file ../psf/mc1_finalTimeOP.montecarlo ...

Opening the PSF file ../psf/mc1_modelParameter.montecarlo ...

Opening the PSF file ../psf/mc1_element.montecarlo ...

Opening the PSF file ../psf/mc1_outputParameter.montecarlo ...

Opening the PSF file ../psf/mc1_designParamVals.montecarlo ...

Opening the PSF file ../psf/mc1_primitives.montecarlo ...

Opening the PSF file ../psf/mc1_subckts.montecarlo ...

**** Performing monte carlo loop for `mc1'

1   0.00% 

*****************************************************************************************
* 
* INFO: AMS_processOption = C35B4C3
* 
* INFO: Valid Modules  PIP VG5 HIRES
* 
*****************************************************************************************


******************
DC Analysis `dcOp'
******************

Opening the PSF file ../psf/mc1_separate/001/dcOp.dc ...
Important parameter values:
    reltol = 100e-06
    abstol(V) = 1 uV
    abstol(I) = 1 pA
    temp = -40 C
    tnom = 27 C
    tempeffects = all
    gmindc = 1 pS
    rabsshort = 1 mOhm

Notice from spectre at iteration = 1 during DC analysis `dcOp', during Monte Carlo analysis `mc1'.
    GminDC = 1 pS is large enough to noticeably affect the DC solution.
        dV(vout) = -223.705 uV
        Use the `gmin_check' option to eliminate or expand this report.
    Bad pivoting is found during DC analysis. Option dc_pivot_check=yes is recommended for possible improvement of convergence.


Maximum value achieved for any signal of each quantity: 
V: V(S<0>) = 3.3 V
I: I(V0:p) = 6.207 uA
Maximum value of each quantity, excluding Verilog-A modules or dangling current sources:
V: V(vout_filt) = 1.6 V
I: I(V0:p) = 6.207 uA

Warning from spectre at iteration = 1 during check, during DC analysis `dcOp', during Monte Carlo analysis `mc1'.
    WARNING (CMI-2943): Parameter checks have been ignored because the valid value for parameter 'trise' could not be found in 'C1'.
    WARNING (CMI-2943): Parameter checks have been ignored because the valid value for parameter 'trise' could not be found in 'I0.R2.CM'.
    WARNING (CMI-2943): Parameter checks have been ignored because the valid value for parameter 'trise' could not be found in 'I0.R2.CS1'.
    WARNING (CMI-2943): Parameter checks have been ignored because the valid value for parameter 'trise' could not be found in 'I0.R2.CS0'.
    WARNING (CMI-2943): Parameter checks have been ignored because the valid value for parameter 'trise' could not be found in 'I0.C8<3>.C1'.
        Further occurrences of this warning will be suppressed.

Convergence achieved in 19 iterations.
DC simulation time: CPU = 5.92 ms, elapsed = 7.32303 ms.
Total time required for dc analysis `dcOp': CPU = 6.497 ms, elapsed = 7.90119 ms, util. = 82.2%.
Time accumulated: CPU = 1.19903 s, elapsed = 1.82725 s.
Peak resident memory used = 212 Mbytes.


Notice from spectre at iteration = 1 during Monte Carlo analysis `mc1'.
    34 warnings suppressed.

dcOpInfo: writing operating point information to rawfile.

Opening the PSF file ../psf/mc1_separate/001/dcOpInfo.info ...

************************************************
Transient Analysis `tran': time = (0 s -> 40 ms)
************************************************

Opening the PSF file ../psf/mc1_separate/001/tran.tran.tran ...

Notice from spectre at iteration = 1 during IC analysis, during transient analysis `tran', during Monte Carlo analysis `mc1'.
    GminDC = 1 pS is large enough to noticeably affect the DC solution.
        dV(vout) = -223.705 uV
        Use the `gmin_check' option to eliminate or expand this report.
    Bad pivoting is found during DC analysis. Option dc_pivot_check=yes is recommended for possible improvement of convergence.
Warning from spectre at iteration = 1 during check, during IC analysis, during transient analysis `tran', during Monte Carlo analysis `mc1'.
    WARNING (CMI-2943): Parameter checks have been ignored because the valid value for parameter 'trise' could not be found in 'C1'.
    WARNING (CMI-2943): Parameter checks have been ignored because the valid value for parameter 'trise' could not be found in 'I0.R2.CM'.
    WARNING (CMI-2943): Parameter checks have been ignored because the valid value for parameter 'trise' could not be found in 'I0.R2.CS1'.
    WARNING (CMI-2943): Parameter checks have been ignored because the valid value for parameter 'trise' could not be found in 'I0.R2.CS0'.
    WARNING (CMI-2943): Parameter checks have been ignored because the valid value for parameter 'trise' could not be found in 'I0.C8<3>.C1'.
        Further occurrences of this warning will be suppressed.

Convergence achieved in 19 iterations.
DC simulation time: CPU = 2.994 ms, elapsed = 2.99501 ms.
Important parameter values:
    start = 0 s
    outputstart = 0 s
    stop = 40 ms
    step = 40 us
    maxstep = 400 us
    ic = all
    useprevic = no
    skipdc = no
    reltol = 10e-06
    abstol(V) = 1 uV
    abstol(I) = 1 pA
    temp = -40 C
    tnom = 27 C
    tempeffects = all
    errpreset = conservative
    method = gear2only
    lteratio = 10
    relref = alllocal
    cmin = 0 F
    gmin = 1 pS
    rabsshort = 1 mOhm


Notice from spectre at iteration = 1 during transient analysis `tran', during Monte Carlo analysis `mc1'.
    Multithreading is disabled due to the size of the design being too small.


Output and IC/nodeset summary:
                 save   8       (current)
                 save   87      (voltage)

    tran: time = 1.028 ms    (2.57 %), step = 47.85 us     (120 m%)
    tran: time = 3.041 ms     (7.6 %), step = 46.95 us     (117 m%)
    tran: time = 5.008 ms    (12.5 %), step = 49.58 us     (124 m%)
    tran: time = 7.022 ms    (17.6 %), step = 48.34 us     (121 m%)
    tran: time = 9.035 ms    (22.6 %), step = 47.32 us     (118 m%)
    tran: time = 11 ms       (27.5 %), step = 50 us        (125 m%)
    tran: time = 13.02 ms    (32.5 %), step = 48.87 us     (122 m%)
    tran: time = 15.03 ms    (37.6 %), step = 47.74 us     (119 m%)
    tran: time = 17.04 ms    (42.6 %), step = 46.86 us     (117 m%)
    tran: time = 19.01 ms    (47.5 %), step = 49.43 us     (124 m%)
    tran: time = 21.02 ms    (52.6 %), step = 48.22 us     (121 m%)
    tran: time = 23.04 ms    (57.6 %), step = 47.23 us     (118 m%)
    tran: time = 25 ms       (62.5 %), step = 50 us        (125 m%)
    tran: time = 27.02 ms    (67.5 %), step = 48.74 us     (122 m%)
    tran: time = 29.03 ms    (72.6 %), step = 47.63 us     (119 m%)
    tran: time = 31.04 ms    (77.6 %), step = 46.78 us     (117 m%)
    tran: time = 33.01 ms    (82.5 %), step = 49.28 us     (123 m%)
    tran: time = 35.02 ms    (87.6 %), step = 48.1 us      (120 m%)
    tran: time = 37.04 ms    (92.6 %), step = 47.14 us     (118 m%)
    tran: time = 39.01 ms    (97.5 %), step = 49.9 us      (125 m%)
Number of accepted tran steps =             851

Maximum value achieved for any signal of each quantity: 
V: V(S<0>) = 3.3 V
I: I(V0:p) = 6.208 uA
Maximum value of each quantity, excluding Verilog-A modules or dangling current sources:
V: V(vout_filt) = 1.614 V
I: I(V0:p) = 6.208 uA

~~~~~~~~~~~~~~~~~~~~~~~~~~~~~~~~~
Post-Transient Simulation Summary
~~~~~~~~~~~~~~~~~~~~~~~~~~~~~~~~~
   -   To further speed up simulation, consider
          add ++aps on command line
   -   Non-default settings that could significantly slow down simulation
          errpreset = conservative, default moderate
          reltol = 10e-06, default 100e-06 (conservative)
~~~~~~~~~~~~~~~~~~~~~~~~~~~~~~~~~


During simulation, the CPU load for active processors is :
         0 (5.4 %)       1 (4.9 %)       2 (9.8 %)       3 (62.8 %)
         4 (23.5 %)      5 (8.3 %)       6 (5.8 %)       7 (5.4 %)
         8 (8.9 %)       9 (7.1 %)      10 (2.2 %)      11 (100.0 %)
        12 (15.7 %)     13 (36.4 %)     14 (4.4 %)      15 (83.6 %)
        16 (56.1 %)     17 (23.8 %)     18 (7.9 %)      19 (2.2 %)
        20 (52.4 %)     21 (34.6 %)     22 (28.8 %)     23 (53.3 %)
        24 (5.8 %)      25 (1.8 %)      26 (3.1 %)      27 (1.3 %)
        29 (1.8 %)      30 (19.2 %)     31 (100.0 %)    32 (1.3 %)
        34 (77.2 %)     35 (3.5 %)      36 (21.9 %)     37 (8.7 %)
        38 (5.4 %)      39 (100.0 %)    40 (23.6 %)     41 (95.6 %)
        42 (6.7 %)      43 (5.3 %)      44 (3.5 %)      45 (3.9 %)
        46 (5.8 %)      47 (1.8 %)      
        Total: 1141.9%
Initial condition solution time: CPU = 3.025 ms, elapsed = 3.02601 ms.
Intrinsic tran analysis time:    CPU = 512.818 ms, elapsed = 514.415 ms.
Total time required for tran analysis `tran': CPU = 517.67 ms, elapsed = 519.837 ms, util. = 99.6%.
Time accumulated: CPU = 1.72388 s, elapsed = 2.35695 s.
Peak resident memory used = 213 Mbytes.


Notice from spectre during transient analysis `tran', during Monte Carlo analysis `mc1'.
    34 warnings suppressed.

finalTimeOP: writing operating point information to rawfile.

Opening the PSF file ../psf/mc1_separate/001/finalTimeOP.info ...
modelParameter: writing model parameter values to rawfile.

Opening the PSF file ../psf/mc1_separate/001/modelParameter.info ...
element: writing instance parameter values to rawfile.

Opening the PSF file ../psf/mc1_separate/001/element.info ...
outputParameter: writing output parameter values to rawfile.

Opening the PSF file ../psf/mc1_separate/001/outputParameter.info ...
designParamVals: writing netlist parameters to rawfile.

Opening the PSFASCII file ../psf/mc1_separate/001/designParamVals.info ...
primitives: writing primitives to rawfile.

Opening the PSFASCII file ../psf/mc1_separate/001/primitives.info.primitives ...
subckts: writing subcircuits to rawfile.

Opening the PSFASCII file ../psf/mc1_separate/001/subckts.info.subckts ...
2   2.04% 

*****************************************************************************************
* 
* INFO: AMS_processOption = C35B4C3
* 
* INFO: Valid Modules  PIP VG5 HIRES
* 
*****************************************************************************************


******************
DC Analysis `dcOp'
******************

Opening the PSF file ../psf/mc1_separate/002/dcOp.dc ...
Important parameter values:
    reltol = 100e-06
    abstol(V) = 1 uV
    abstol(I) = 1 pA
    temp = -40 C
    tnom = 27 C
    tempeffects = all
    gmindc = 1 pS
    rabsshort = 1 mOhm

Notice from spectre during DC analysis `dcOp', during Monte Carlo analysis `mc1'.
    GminDC = 1 pS is large enough to noticeably affect the DC solution.
        dV(vout) = -223.506 uV
        Use the `gmin_check' option to eliminate or expand this report.
    Bad pivoting is found during DC analysis. Option dc_pivot_check=yes is recommended for possible improvement of convergence.


Maximum value achieved for any signal of each quantity: 
V: V(S<0>) = 3.3 V
I: I(V0:p) = 6.497 uA
Maximum value of each quantity, excluding Verilog-A modules or dangling current sources:
V: V(vout_filt) = 1.6 V
I: I(V0:p) = 6.497 uA

Warning from spectre during check, during DC analysis `dcOp', during Monte Carlo analysis `mc1'.
    WARNING (CMI-2943): Parameter checks have been ignored because the valid value for parameter 'trise' could not be found in 'C1'.
    WARNING (CMI-2943): Parameter checks have been ignored because the valid value for parameter 'trise' could not be found in 'I0.R2.CM'.
    WARNING (CMI-2943): Parameter checks have been ignored because the valid value for parameter 'trise' could not be found in 'I0.R2.CS1'.
    WARNING (CMI-2943): Parameter checks have been ignored because the valid value for parameter 'trise' could not be found in 'I0.R2.CS0'.
    WARNING (CMI-2943): Parameter checks have been ignored because the valid value for parameter 'trise' could not be found in 'I0.C8<3>.C1'.
        Further occurrences of this warning will be suppressed.

Convergence achieved in 19 iterations.
DC simulation time: CPU = 5.479 ms, elapsed = 6.90413 ms.
Total time required for dc analysis `dcOp': CPU = 5.945 ms, elapsed = 7.37023 ms, util. = 80.7%.
Time accumulated: CPU = 1.76791 s, elapsed = 2.41325 s.
Peak resident memory used = 213 Mbytes.


Notice from spectre during Monte Carlo analysis `mc1'.
    34 warnings suppressed.

dcOpInfo: writing operating point information to rawfile.

Opening the PSF file ../psf/mc1_separate/002/dcOpInfo.info ...

************************************************
Transient Analysis `tran': time = (0 s -> 40 ms)
************************************************

Opening the PSF file ../psf/mc1_separate/002/tran.tran.tran ...

Notice from spectre during IC analysis, during transient analysis `tran', during Monte Carlo analysis `mc1'.
    GminDC = 1 pS is large enough to noticeably affect the DC solution.
        dV(vout) = -223.506 uV
        Use the `gmin_check' option to eliminate or expand this report.
    Bad pivoting is found during DC analysis. Option dc_pivot_check=yes is recommended for possible improvement of convergence.
Warning from spectre during check, during IC analysis, during transient analysis `tran', during Monte Carlo analysis `mc1'.
    WARNING (CMI-2943): Parameter checks have been ignored because the valid value for parameter 'trise' could not be found in 'C1'.
    WARNING (CMI-2943): Parameter checks have been ignored because the valid value for parameter 'trise' could not be found in 'I0.R2.CM'.
    WARNING (CMI-2943): Parameter checks have been ignored because the valid value for parameter 'trise' could not be found in 'I0.R2.CS1'.
    WARNING (CMI-2943): Parameter checks have been ignored because the valid value for parameter 'trise' could not be found in 'I0.R2.CS0'.
    WARNING (CMI-2943): Parameter checks have been ignored because the valid value for parameter 'trise' could not be found in 'I0.C8<3>.C1'.
        Further occurrences of this warning will be suppressed.

Convergence achieved in 19 iterations.
DC simulation time: CPU = 2.976 ms, elapsed = 2.97809 ms.
Important parameter values:
    start = 0 s
    outputstart = 0 s
    stop = 40 ms
    step = 40 us
    maxstep = 400 us
    ic = all
    useprevic = no
    skipdc = no
    reltol = 10e-06
    abstol(V) = 1 uV
    abstol(I) = 1 pA
    temp = -40 C
    tnom = 27 C
    tempeffects = all
    errpreset = conservative
    method = gear2only
    lteratio = 10
    relref = alllocal
    cmin = 0 F
    gmin = 1 pS
    rabsshort = 1 mOhm


Notice from spectre during transient analysis `tran', during Monte Carlo analysis `mc1'.
    Multithreading is disabled due to the size of the design being too small.


Output and IC/nodeset summary:
                 save   8       (current)
                 save   87      (voltage)

    tran: time = 1.03 ms     (2.58 %), step = 47.67 us     (119 m%)
    tran: time = 3.044 ms    (7.61 %), step = 46.81 us     (117 m%)
    tran: time = 5.011 ms    (12.5 %), step = 49.33 us     (123 m%)
    tran: time = 7.024 ms    (17.6 %), step = 48.14 us     (120 m%)
    tran: time = 9.038 ms    (22.6 %), step = 47.17 us     (118 m%)
    tran: time = 11 ms       (27.5 %), step = 49.96 us     (125 m%)
    tran: time = 13.02 ms    (32.5 %), step = 48.65 us     (122 m%)
    tran: time = 15.03 ms    (37.6 %), step = 47.57 us     (119 m%)
    tran: time = 17.05 ms    (42.6 %), step = 46.73 us     (117 m%)
    tran: time = 19.01 ms    (47.5 %), step = 49.2 us      (123 m%)
    tran: time = 21.03 ms    (52.6 %), step = 48.03 us     (120 m%)
    tran: time = 23.04 ms    (57.6 %), step = 47.09 us     (118 m%)
    tran: time = 25.01 ms    (62.5 %), step = 49.82 us     (125 m%)
    tran: time = 27.02 ms    (67.5 %), step = 48.54 us     (121 m%)
    tran: time = 29.03 ms    (72.6 %), step = 47.48 us     (119 m%)
    tran: time = 31.05 ms    (77.6 %), step = 46.66 us     (117 m%)
    tran: time = 33.01 ms    (82.5 %), step = 49.09 us     (123 m%)
    tran: time = 35.03 ms    (87.6 %), step = 47.93 us     (120 m%)
    tran: time = 37.04 ms    (92.6 %), step = 47.01 us     (118 m%)
    tran: time = 39.01 ms    (97.5 %), step = 49.69 us     (124 m%)
Number of accepted tran steps =             851

Maximum value achieved for any signal of each quantity: 
V: V(S<0>) = 3.3 V
I: I(V0:p) = 6.498 uA
Maximum value of each quantity, excluding Verilog-A modules or dangling current sources:
V: V(vout_filt) = 1.614 V
I: I(V0:p) = 6.498 uA

~~~~~~~~~~~~~~~~~~~~~~~~~~~~~~~~~
Post-Transient Simulation Summary
~~~~~~~~~~~~~~~~~~~~~~~~~~~~~~~~~
   -   To further speed up simulation, consider
          add ++aps on command line
   -   Non-default settings that could significantly slow down simulation
          errpreset = conservative, default moderate
          reltol = 10e-06, default 100e-06 (conservative)
~~~~~~~~~~~~~~~~~~~~~~~~~~~~~~~~~


During simulation, the CPU load for active processors is :
         0 (5.4 %)       1 (9.3 %)       2 (9.8 %)       3 (69.7 %)
         4 (22.5 %)      5 (7.7 %)       6 (5.3 %)       7 (4.6 %)
         8 (7.4 %)       9 (6.7 %)      10 (2.1 %)      11 (100.0 %)
        12 (12.9 %)     13 (49.1 %)     14 (6.6 %)      15 (82.7 %)
        16 (56.6 %)     17 (24.1 %)     18 (9.4 %)      19 (2.1 %)
        20 (42.1 %)     21 (27.7 %)     22 (23.4 %)     23 (56.6 %)
        24 (4.6 %)      25 (1.4 %)      26 (3.5 %)      27 (1.4 %)
        28 (1.8 %)      29 (1.4 %)      30 (35.2 %)     31 (100.0 %)
        32 (6.0 %)      33 (1.1 %)      34 (62.2 %)     35 (2.8 %)
        36 (17.6 %)     37 (9.4 %)      38 (7.1 %)      39 (100.0 %)
        40 (19.2 %)     41 (95.5 %)     42 (6.4 %)      43 (5.3 %)
        44 (4.2 %)      45 (3.8 %)      46 (4.6 %)      47 (1.8 %)
        Total: 1140.4%
Initial condition solution time: CPU = 3.01 ms, elapsed = 3.01099 ms.
Intrinsic tran analysis time:    CPU = 513.189 ms, elapsed = 515.056 ms.
Total time required for tran analysis `tran': CPU = 518.228 ms, elapsed = 520.761 ms, util. = 99.5%.
Time accumulated: CPU = 2.29353 s, elapsed = 2.94387 s.
Peak resident memory used = 214 Mbytes.


Notice from spectre during transient analysis `tran', during Monte Carlo analysis `mc1'.
    34 warnings suppressed.

finalTimeOP: writing operating point information to rawfile.

Opening the PSF file ../psf/mc1_separate/002/finalTimeOP.info ...
modelParameter: writing model parameter values to rawfile.

Opening the PSF file ../psf/mc1_separate/002/modelParameter.info ...
element: writing instance parameter values to rawfile.

Opening the PSF file ../psf/mc1_separate/002/element.info ...
outputParameter: writing output parameter values to rawfile.

Opening the PSF file ../psf/mc1_separate/002/outputParameter.info ...
designParamVals: writing netlist parameters to rawfile.

Opening the PSFASCII file ../psf/mc1_separate/002/designParamVals.info ...
primitives: writing primitives to rawfile.

Opening the PSFASCII file ../psf/mc1_separate/002/primitives.info.primitives ...
subckts: writing subcircuits to rawfile.

Opening the PSFASCII file ../psf/mc1_separate/002/subckts.info.subckts ...
3   4.08% 

*****************************************************************************************
* 
* INFO: AMS_processOption = C35B4C3
* 
* INFO: Valid Modules  PIP VG5 HIRES
* 
*****************************************************************************************


******************
DC Analysis `dcOp'
******************

Opening the PSF file ../psf/mc1_separate/003/dcOp.dc ...
Important parameter values:
    reltol = 100e-06
    abstol(V) = 1 uV
    abstol(I) = 1 pA
    temp = -40 C
    tnom = 27 C
    tempeffects = all
    gmindc = 1 pS
    rabsshort = 1 mOhm

Notice from spectre during DC analysis `dcOp', during Monte Carlo analysis `mc1'.
    GminDC = 1 pS is large enough to noticeably affect the DC solution.
        dV(vout) = -223.414 uV
        Use the `gmin_check' option to eliminate or expand this report.
    Bad pivoting is found during DC analysis. Option dc_pivot_check=yes is recommended for possible improvement of convergence.


Maximum value achieved for any signal of each quantity: 
V: V(S<0>) = 3.3 V
I: I(V0:p) = 6.375 uA
Maximum value of each quantity, excluding Verilog-A modules or dangling current sources:
V: V(vout_filt) = 1.6 V
I: I(V0:p) = 6.375 uA

Warning from spectre during check, during DC analysis `dcOp', during Monte Carlo analysis `mc1'.
    WARNING (CMI-2943): Parameter checks have been ignored because the valid value for parameter 'trise' could not be found in 'C1'.
    WARNING (CMI-2943): Parameter checks have been ignored because the valid value for parameter 'trise' could not be found in 'I0.R2.CM'.
    WARNING (CMI-2943): Parameter checks have been ignored because the valid value for parameter 'trise' could not be found in 'I0.R2.CS1'.
    WARNING (CMI-2943): Parameter checks have been ignored because the valid value for parameter 'trise' could not be found in 'I0.R2.CS0'.
    WARNING (CMI-2943): Parameter checks have been ignored because the valid value for parameter 'trise' could not be found in 'I0.C8<3>.C1'.
        Further occurrences of this warning will be suppressed.

Convergence achieved in 19 iterations.
DC simulation time: CPU = 6.197 ms, elapsed = 7.43508 ms.
Total time required for dc analysis `dcOp': CPU = 6.769 ms, elapsed = 8.00395 ms, util. = 84.6%.
Time accumulated: CPU = 2.33898 s, elapsed = 3.0006 s.
Peak resident memory used = 214 Mbytes.


Notice from spectre during Monte Carlo analysis `mc1'.
    34 warnings suppressed.

dcOpInfo: writing operating point information to rawfile.

Opening the PSF file ../psf/mc1_separate/003/dcOpInfo.info ...

************************************************
Transient Analysis `tran': time = (0 s -> 40 ms)
************************************************

Opening the PSF file ../psf/mc1_separate/003/tran.tran.tran ...

Notice from spectre during IC analysis, during transient analysis `tran', during Monte Carlo analysis `mc1'.
    GminDC = 1 pS is large enough to noticeably affect the DC solution.
        dV(vout) = -223.414 uV
        Use the `gmin_check' option to eliminate or expand this report.
    Bad pivoting is found during DC analysis. Option dc_pivot_check=yes is recommended for possible improvement of convergence.
Warning from spectre during check, during IC analysis, during transient analysis `tran', during Monte Carlo analysis `mc1'.
    WARNING (CMI-2943): Parameter checks have been ignored because the valid value for parameter 'trise' could not be found in 'C1'.
    WARNING (CMI-2943): Parameter checks have been ignored because the valid value for parameter 'trise' could not be found in 'I0.R2.CM'.
    WARNING (CMI-2943): Parameter checks have been ignored because the valid value for parameter 'trise' could not be found in 'I0.R2.CS1'.
    WARNING (CMI-2943): Parameter checks have been ignored because the valid value for parameter 'trise' could not be found in 'I0.R2.CS0'.
    WARNING (CMI-2943): Parameter checks have been ignored because the valid value for parameter 'trise' could not be found in 'I0.C8<3>.C1'.
        Further occurrences of this warning will be suppressed.

Convergence achieved in 19 iterations.
DC simulation time: CPU = 3.041 ms, elapsed = 3.05891 ms.
Important parameter values:
    start = 0 s
    outputstart = 0 s
    stop = 40 ms
    step = 40 us
    maxstep = 400 us
    ic = all
    useprevic = no
    skipdc = no
    reltol = 10e-06
    abstol(V) = 1 uV
    abstol(I) = 1 pA
    temp = -40 C
    tnom = 27 C
    tempeffects = all
    errpreset = conservative
    method = gear2only
    lteratio = 10
    relref = alllocal
    cmin = 0 F
    gmin = 1 pS
    rabsshort = 1 mOhm


Notice from spectre during transient analysis `tran', during Monte Carlo analysis `mc1'.
    Multithreading is disabled due to the size of the design being too small.


Output and IC/nodeset summary:
                 save   8       (current)
                 save   87      (voltage)

    tran: time = 1.029 ms    (2.57 %), step = 47.79 us     (119 m%)
    tran: time = 3.042 ms    (7.61 %), step = 46.9 us      (117 m%)
    tran: time = 5.009 ms    (12.5 %), step = 49.5 us      (124 m%)
    tran: time = 7.022 ms    (17.6 %), step = 48.29 us     (121 m%)
    tran: time = 9.036 ms    (22.6 %), step = 47.29 us     (118 m%)
    tran: time = 11 ms       (27.5 %), step = 50 us        (125 m%)
    tran: time = 13.02 ms    (32.5 %), step = 48.83 us     (122 m%)
    tran: time = 15.03 ms    (37.6 %), step = 47.72 us     (119 m%)
    tran: time = 17.04 ms    (42.6 %), step = 46.85 us     (117 m%)
    tran: time = 19.01 ms    (47.5 %), step = 49.41 us     (124 m%)
    tran: time = 21.02 ms    (52.6 %), step = 48.21 us     (121 m%)
    tran: time = 23.04 ms    (57.6 %), step = 47.23 us     (118 m%)
    tran: time = 25 ms       (62.5 %), step = 50 us        (125 m%)
    tran: time = 27.02 ms    (67.5 %), step = 48.75 us     (122 m%)
    tran: time = 29.03 ms    (72.6 %), step = 47.65 us     (119 m%)
    tran: time = 31.04 ms    (77.6 %), step = 46.8 us      (117 m%)
    tran: time = 33.01 ms    (82.5 %), step = 49.32 us     (123 m%)
    tran: time = 35.02 ms    (87.6 %), step = 48.13 us     (120 m%)
    tran: time = 37.04 ms    (92.6 %), step = 47.17 us     (118 m%)
    tran: time = 39 ms       (97.5 %), step = 49.96 us     (125 m%)
Number of accepted tran steps =             851

Maximum value achieved for any signal of each quantity: 
V: V(S<0>) = 3.3 V
I: I(V0:p) = 6.376 uA
Maximum value of each quantity, excluding Verilog-A modules or dangling current sources:
V: V(vout_filt) = 1.614 V
I: I(V0:p) = 6.376 uA

~~~~~~~~~~~~~~~~~~~~~~~~~~~~~~~~~
Post-Transient Simulation Summary
~~~~~~~~~~~~~~~~~~~~~~~~~~~~~~~~~
   -   To further speed up simulation, consider
          add ++aps on command line
   -   Non-default settings that could significantly slow down simulation
          errpreset = conservative, default moderate
          reltol = 10e-06, default 100e-06 (conservative)
~~~~~~~~~~~~~~~~~~~~~~~~~~~~~~~~~


During simulation, the CPU load for active processors is :
         0 (4.8 %)       1 (25.1 %)      2 (8.2 %)       3 (74.9 %)
         4 (22.0 %)      5 (9.0 %)       6 (4.7 %)       7 (3.8 %)
         8 (18.5 %)      9 (20.8 %)     10 (2.6 %)      11 (100.0 %)
        12 (11.3 %)     13 (57.5 %)     14 (5.5 %)      15 (85.7 %)
        16 (56.1 %)     17 (20.3 %)     18 (11.3 %)     19 (2.1 %)
        20 (43.4 %)     21 (23.3 %)     22 (20.0 %)     23 (55.2 %)
        24 (4.7 %)      25 (1.8 %)      26 (18.1 %)     27 (2.0 %)
        28 (1.8 %)      29 (1.5 %)      30 (41.7 %)     31 (100.0 %)
        32 (6.1 %)      33 (1.2 %)      34 (54.4 %)     35 (3.2 %)
        36 (17.5 %)     37 (8.1 %)      38 (7.9 %)      39 (100.0 %)
        40 (17.4 %)     41 (96.0 %)     42 (5.9 %)      43 (4.7 %)
        44 (4.1 %)      45 (3.5 %)      46 (4.4 %)      47 (1.8 %)
        Total: 1193.7%
Initial condition solution time: CPU = 3.072 ms, elapsed = 3.09086 ms.
Intrinsic tran analysis time:    CPU = 519.132 ms, elapsed = 520.425 ms.
Total time required for tran analysis `tran': CPU = 523.989 ms, elapsed = 525.866 ms, util. = 99.6%.
Time accumulated: CPU = 2.87031 s, elapsed = 3.53622 s.
Peak resident memory used = 214 Mbytes.


Notice from spectre during transient analysis `tran', during Monte Carlo analysis `mc1'.
    34 warnings suppressed.

finalTimeOP: writing operating point information to rawfile.

Opening the PSF file ../psf/mc1_separate/003/finalTimeOP.info ...
modelParameter: writing model parameter values to rawfile.

Opening the PSF file ../psf/mc1_separate/003/modelParameter.info ...
element: writing instance parameter values to rawfile.

Opening the PSF file ../psf/mc1_separate/003/element.info ...
outputParameter: writing output parameter values to rawfile.

Opening the PSF file ../psf/mc1_separate/003/outputParameter.info ...
designParamVals: writing netlist parameters to rawfile.

Opening the PSFASCII file ../psf/mc1_separate/003/designParamVals.info ...
primitives: writing primitives to rawfile.

Opening the PSFASCII file ../psf/mc1_separate/003/primitives.info.primitives ...
subckts: writing subcircuits to rawfile.

Opening the PSFASCII file ../psf/mc1_separate/003/subckts.info.subckts ...
    mc1: iteration = 3           (4.08 %), step = 1            (2.04 %)
4   6.12% 

*****************************************************************************************
* 
* INFO: AMS_processOption = C35B4C3
* 
* INFO: Valid Modules  PIP VG5 HIRES
* 
*****************************************************************************************


******************
DC Analysis `dcOp'
******************

Opening the PSF file ../psf/mc1_separate/004/dcOp.dc ...
Important parameter values:
    reltol = 100e-06
    abstol(V) = 1 uV
    abstol(I) = 1 pA
    temp = -40 C
    tnom = 27 C
    tempeffects = all
    gmindc = 1 pS
    rabsshort = 1 mOhm

Notice from spectre during DC analysis `dcOp', during Monte Carlo analysis `mc1'.
    GminDC = 1 pS is large enough to noticeably affect the DC solution.
        dV(vout) = -223.358 uV
        Use the `gmin_check' option to eliminate or expand this report.
    Bad pivoting is found during DC analysis. Option dc_pivot_check=yes is recommended for possible improvement of convergence.


Maximum value achieved for any signal of each quantity: 
V: V(S<0>) = 3.3 V
I: I(V0:p) = 6.542 uA
Maximum value of each quantity, excluding Verilog-A modules or dangling current sources:
V: V(net1) = 1.6 V
I: I(V0:p) = 6.542 uA

Warning from spectre during check, during DC analysis `dcOp', during Monte Carlo analysis `mc1'.
    WARNING (CMI-2943): Parameter checks have been ignored because the valid value for parameter 'trise' could not be found in 'C1'.
    WARNING (CMI-2943): Parameter checks have been ignored because the valid value for parameter 'trise' could not be found in 'I0.R2.CM'.
    WARNING (CMI-2943): Parameter checks have been ignored because the valid value for parameter 'trise' could not be found in 'I0.R2.CS1'.
    WARNING (CMI-2943): Parameter checks have been ignored because the valid value for parameter 'trise' could not be found in 'I0.R2.CS0'.
    WARNING (CMI-2943): Parameter checks have been ignored because the valid value for parameter 'trise' could not be found in 'I0.C8<3>.C1'.
        Further occurrences of this warning will be suppressed.

Convergence achieved in 19 iterations.
DC simulation time: CPU = 6.129 ms, elapsed = 7.49111 ms.
Total time required for dc analysis `dcOp': CPU = 6.755 ms, elapsed = 8.11601 ms, util. = 83.2%.
Time accumulated: CPU = 2.91608 s, elapsed = 3.5945 s.
Peak resident memory used = 214 Mbytes.


Notice from spectre during Monte Carlo analysis `mc1'.
    34 warnings suppressed.

dcOpInfo: writing operating point information to rawfile.

Opening the PSF file ../psf/mc1_separate/004/dcOpInfo.info ...

************************************************
Transient Analysis `tran': time = (0 s -> 40 ms)
************************************************

Opening the PSF file ../psf/mc1_separate/004/tran.tran.tran ...

Notice from spectre during IC analysis, during transient analysis `tran', during Monte Carlo analysis `mc1'.
    GminDC = 1 pS is large enough to noticeably affect the DC solution.
        dV(vout) = -223.358 uV
        Use the `gmin_check' option to eliminate or expand this report.
    Bad pivoting is found during DC analysis. Option dc_pivot_check=yes is recommended for possible improvement of convergence.
Warning from spectre during check, during IC analysis, during transient analysis `tran', during Monte Carlo analysis `mc1'.
    WARNING (CMI-2943): Parameter checks have been ignored because the valid value for parameter 'trise' could not be found in 'C1'.
    WARNING (CMI-2943): Parameter checks have been ignored because the valid value for parameter 'trise' could not be found in 'I0.R2.CM'.
    WARNING (CMI-2943): Parameter checks have been ignored because the valid value for parameter 'trise' could not be found in 'I0.R2.CS1'.
    WARNING (CMI-2943): Parameter checks have been ignored because the valid value for parameter 'trise' could not be found in 'I0.R2.CS0'.
    WARNING (CMI-2943): Parameter checks have been ignored because the valid value for parameter 'trise' could not be found in 'I0.C8<3>.C1'.
        Further occurrences of this warning will be suppressed.

Convergence achieved in 19 iterations.
DC simulation time: CPU = 3.061 ms, elapsed = 3.06082 ms.
Important parameter values:
    start = 0 s
    outputstart = 0 s
    stop = 40 ms
    step = 40 us
    maxstep = 400 us
    ic = all
    useprevic = no
    skipdc = no
    reltol = 10e-06
    abstol(V) = 1 uV
    abstol(I) = 1 pA
    temp = -40 C
    tnom = 27 C
    tempeffects = all
    errpreset = conservative
    method = gear2only
    lteratio = 10
    relref = alllocal
    cmin = 0 F
    gmin = 1 pS
    rabsshort = 1 mOhm


Notice from spectre during transient analysis `tran', during Monte Carlo analysis `mc1'.
    Multithreading is disabled due to the size of the design being too small.


Output and IC/nodeset summary:
                 save   8       (current)
                 save   87      (voltage)

    tran: time = 1.03 ms     (2.58 %), step = 47.65 us     (119 m%)
    tran: time = 3.044 ms    (7.61 %), step = 46.81 us     (117 m%)
    tran: time = 5.01 ms     (12.5 %), step = 49.37 us     (123 m%)
    tran: time = 7.023 ms    (17.6 %), step = 48.2 us      (120 m%)
    tran: time = 9.036 ms    (22.6 %), step = 47.23 us     (118 m%)
    tran: time = 11 ms       (27.5 %), step = 50 us        (125 m%)
    tran: time = 13.02 ms    (32.5 %), step = 48.8 us      (122 m%)
    tran: time = 15.03 ms    (37.6 %), step = 47.71 us     (119 m%)
    tran: time = 17.04 ms    (42.6 %), step = 46.86 us     (117 m%)
    tran: time = 19.01 ms    (47.5 %), step = 49.46 us     (124 m%)
    tran: time = 21.02 ms    (52.6 %), step = 48.27 us     (121 m%)
    tran: time = 23.04 ms    (57.6 %), step = 47.29 us     (118 m%)
    tran: time = 25 ms       (62.5 %), step = 50 us        (125 m%)
    tran: time = 27.02 ms    (67.5 %), step = 48.88 us     (122 m%)
    tran: time = 29.03 ms    (72.6 %), step = 47.77 us     (119 m%)
    tran: time = 31.04 ms    (77.6 %), step = 46.9 us      (117 m%)
    tran: time = 33.01 ms    (82.5 %), step = 49.54 us     (124 m%)
    tran: time = 35.02 ms    (87.6 %), step = 48.34 us     (121 m%)
    tran: time = 37.03 ms    (92.6 %), step = 47.34 us     (118 m%)
    tran: time = 39 ms       (97.5 %), step = 50 us        (125 m%)
Number of accepted tran steps =             851

Maximum value achieved for any signal of each quantity: 
V: V(S<0>) = 3.3 V
I: I(V0:p) = 6.542 uA
Maximum value of each quantity, excluding Verilog-A modules or dangling current sources:
V: V(vout_filt) = 1.613 V
I: I(V0:p) = 6.542 uA

~~~~~~~~~~~~~~~~~~~~~~~~~~~~~~~~~
Post-Transient Simulation Summary
~~~~~~~~~~~~~~~~~~~~~~~~~~~~~~~~~
   -   To further speed up simulation, consider
          add ++aps on command line
   -   Non-default settings that could significantly slow down simulation
          errpreset = conservative, default moderate
          reltol = 10e-06, default 100e-06 (conservative)
~~~~~~~~~~~~~~~~~~~~~~~~~~~~~~~~~


During simulation, the CPU load for active processors is :
         0 (4.6 %)       1 (27.0 %)      2 (10.7 %)      3 (64.9 %)
         4 (32.3 %)      5 (9.4 %)       6 (6.3 %)       7 (4.0 %)
         8 (21.2 %)      9 (31.0 %)     10 (9.0 %)      11 (100.0 %)
        12 (13.1 %)     13 (51.7 %)     14 (4.7 %)      15 (77.2 %)
        16 (55.1 %)     17 (21.1 %)     18 (11.1 %)     19 (6.3 %)
        20 (40.3 %)     21 (20.4 %)     22 (29.1 %)     23 (53.1 %)
        24 (4.7 %)      25 (2.8 %)      26 (26.6 %)     27 (2.5 %)
        28 (3.0 %)      29 (2.5 %)      30 (36.7 %)     31 (100.0 %)
        32 (7.5 %)      33 (1.5 %)      34 (54.4 %)     35 (3.2 %)
        36 (17.4 %)     37 (8.1 %)      38 (7.3 %)      39 (100.0 %)
        40 (22.0 %)     41 (86.2 %)     42 (15.2 %)     43 (5.7 %)
        44 (3.8 %)      45 (3.8 %)      46 (4.8 %)      47 (2.8 %)
        Total: 1225.9%
Initial condition solution time: CPU = 3.1 ms, elapsed = 3.10111 ms.
Intrinsic tran analysis time:    CPU = 525.593 ms, elapsed = 527.703 ms.
Total time required for tran analysis `tran': CPU = 530.745 ms, elapsed = 533.524 ms, util. = 99.5%.
Time accumulated: CPU = 3.4541 s, elapsed = 4.13788 s.
Peak resident memory used = 214 Mbytes.


Notice from spectre during transient analysis `tran', during Monte Carlo analysis `mc1'.
    34 warnings suppressed.

finalTimeOP: writing operating point information to rawfile.

Opening the PSF file ../psf/mc1_separate/004/finalTimeOP.info ...
modelParameter: writing model parameter values to rawfile.

Opening the PSF file ../psf/mc1_separate/004/modelParameter.info ...
element: writing instance parameter values to rawfile.

Opening the PSF file ../psf/mc1_separate/004/element.info ...
outputParameter: writing output parameter values to rawfile.

Opening the PSF file ../psf/mc1_separate/004/outputParameter.info ...
designParamVals: writing netlist parameters to rawfile.

Opening the PSFASCII file ../psf/mc1_separate/004/designParamVals.info ...
primitives: writing primitives to rawfile.

Opening the PSFASCII file ../psf/mc1_separate/004/primitives.info.primitives ...
subckts: writing subcircuits to rawfile.

Opening the PSFASCII file ../psf/mc1_separate/004/subckts.info.subckts ...
    mc1: iteration = 4           (6.12 %), step = 1            (2.04 %)
5   8.16% 

*****************************************************************************************
* 
* INFO: AMS_processOption = C35B4C3
* 
* INFO: Valid Modules  PIP VG5 HIRES
* 
*****************************************************************************************


******************
DC Analysis `dcOp'
******************

Opening the PSF file ../psf/mc1_separate/005/dcOp.dc ...
Important parameter values:
    reltol = 100e-06
    abstol(V) = 1 uV
    abstol(I) = 1 pA
    temp = -40 C
    tnom = 27 C
    tempeffects = all
    gmindc = 1 pS
    rabsshort = 1 mOhm

Notice from spectre during DC analysis `dcOp', during Monte Carlo analysis `mc1'.
    GminDC = 1 pS is large enough to noticeably affect the DC solution.
        dV(vout) = -223.761 uV
        Use the `gmin_check' option to eliminate or expand this report.
    Bad pivoting is found during DC analysis. Option dc_pivot_check=yes is recommended for possible improvement of convergence.


Maximum value achieved for any signal of each quantity: 
V: V(S<0>) = 3.3 V
I: I(V0:p) = 6.442 uA
Maximum value of each quantity, excluding Verilog-A modules or dangling current sources:
V: V(vout_filt) = 1.601 V
I: I(V0:p) = 6.442 uA

Warning from spectre during check, during DC analysis `dcOp', during Monte Carlo analysis `mc1'.
    WARNING (CMI-2943): Parameter checks have been ignored because the valid value for parameter 'trise' could not be found in 'C1'.
    WARNING (CMI-2943): Parameter checks have been ignored because the valid value for parameter 'trise' could not be found in 'I0.R2.CM'.
    WARNING (CMI-2943): Parameter checks have been ignored because the valid value for parameter 'trise' could not be found in 'I0.R2.CS1'.
    WARNING (CMI-2943): Parameter checks have been ignored because the valid value for parameter 'trise' could not be found in 'I0.R2.CS0'.
    WARNING (CMI-2943): Parameter checks have been ignored because the valid value for parameter 'trise' could not be found in 'I0.C8<3>.C1'.
        Further occurrences of this warning will be suppressed.

Convergence achieved in 19 iterations.
DC simulation time: CPU = 5.939 ms, elapsed = 7.28202 ms.
Total time required for dc analysis `dcOp': CPU = 6.555 ms, elapsed = 7.8969 ms, util. = 83%.
Time accumulated: CPU = 3.5033 s, elapsed = 4.20052 s.
Peak resident memory used = 214 Mbytes.


Notice from spectre during Monte Carlo analysis `mc1'.
    34 warnings suppressed.

dcOpInfo: writing operating point information to rawfile.

Opening the PSF file ../psf/mc1_separate/005/dcOpInfo.info ...

************************************************
Transient Analysis `tran': time = (0 s -> 40 ms)
************************************************

Opening the PSF file ../psf/mc1_separate/005/tran.tran.tran ...

Notice from spectre during IC analysis, during transient analysis `tran', during Monte Carlo analysis `mc1'.
    GminDC = 1 pS is large enough to noticeably affect the DC solution.
        dV(vout) = -223.761 uV
        Use the `gmin_check' option to eliminate or expand this report.
    Bad pivoting is found during DC analysis. Option dc_pivot_check=yes is recommended for possible improvement of convergence.
Warning from spectre during check, during IC analysis, during transient analysis `tran', during Monte Carlo analysis `mc1'.
    WARNING (CMI-2943): Parameter checks have been ignored because the valid value for parameter 'trise' could not be found in 'C1'.
    WARNING (CMI-2943): Parameter checks have been ignored because the valid value for parameter 'trise' could not be found in 'I0.R2.CM'.
    WARNING (CMI-2943): Parameter checks have been ignored because the valid value for parameter 'trise' could not be found in 'I0.R2.CS1'.
    WARNING (CMI-2943): Parameter checks have been ignored because the valid value for parameter 'trise' could not be found in 'I0.R2.CS0'.
    WARNING (CMI-2943): Parameter checks have been ignored because the valid value for parameter 'trise' could not be found in 'I0.C8<3>.C1'.
        Further occurrences of this warning will be suppressed.

Convergence achieved in 19 iterations.
DC simulation time: CPU = 3.012 ms, elapsed = 3.01313 ms.
Important parameter values:
    start = 0 s
    outputstart = 0 s
    stop = 40 ms
    step = 40 us
    maxstep = 400 us
    ic = all
    useprevic = no
    skipdc = no
    reltol = 10e-06
    abstol(V) = 1 uV
    abstol(I) = 1 pA
    temp = -40 C
    tnom = 27 C
    tempeffects = all
    errpreset = conservative
    method = gear2only
    lteratio = 10
    relref = alllocal
    cmin = 0 F
    gmin = 1 pS
    rabsshort = 1 mOhm


Notice from spectre during transient analysis `tran', during Monte Carlo analysis `mc1'.
    Multithreading is disabled due to the size of the design being too small.


Output and IC/nodeset summary:
                 save   8       (current)
                 save   87      (voltage)

    tran: time = 1.03 ms     (2.57 %), step = 47.7 us      (119 m%)
    tran: time = 3.043 ms    (7.61 %), step = 46.83 us     (117 m%)
    tran: time = 5.01 ms     (12.5 %), step = 49.36 us     (123 m%)
    tran: time = 7.024 ms    (17.6 %), step = 48.16 us     (120 m%)
    tran: time = 9.038 ms    (22.6 %), step = 47.18 us     (118 m%)
    tran: time = 11 ms       (27.5 %), step = 49.96 us     (125 m%)
    tran: time = 13.02 ms    (32.5 %), step = 48.65 us     (122 m%)
    tran: time = 15.03 ms    (37.6 %), step = 47.56 us     (119 m%)
    tran: time = 17.05 ms    (42.6 %), step = 46.72 us     (117 m%)
    tran: time = 19.01 ms    (47.5 %), step = 49.18 us     (123 m%)
    tran: time = 21.03 ms    (52.6 %), step = 48 us        (120 m%)
    tran: time = 23.04 ms    (57.6 %), step = 47.06 us     (118 m%)
    tran: time = 25.01 ms    (62.5 %), step = 49.76 us     (124 m%)
    tran: time = 27.02 ms    (67.5 %), step = 48.49 us     (121 m%)
    tran: time = 29.03 ms    (72.6 %), step = 47.44 us     (119 m%)
    tran: time = 31 ms       (77.5 %), step = 50 us        (125 m%)
    tran: time = 33.01 ms    (82.5 %), step = 49.01 us     (123 m%)
    tran: time = 35.03 ms    (87.6 %), step = 47.85 us     (120 m%)
    tran: time = 37.04 ms    (92.6 %), step = 46.94 us     (117 m%)
    tran: time = 39.01 ms    (97.5 %), step = 49.56 us     (124 m%)
Number of accepted tran steps =             851

Maximum value achieved for any signal of each quantity: 
V: V(S<0>) = 3.3 V
I: I(V0:p) = 6.442 uA
Maximum value of each quantity, excluding Verilog-A modules or dangling current sources:
V: V(vout_filt) = 1.614 V
I: I(V0:p) = 6.442 uA

~~~~~~~~~~~~~~~~~~~~~~~~~~~~~~~~~
Post-Transient Simulation Summary
~~~~~~~~~~~~~~~~~~~~~~~~~~~~~~~~~
   -   To further speed up simulation, consider
          add ++aps on command line
   -   Non-default settings that could significantly slow down simulation
          errpreset = conservative, default moderate
          reltol = 10e-06, default 100e-06 (conservative)
~~~~~~~~~~~~~~~~~~~~~~~~~~~~~~~~~


During simulation, the CPU load for active processors is :
         0 (4.2 %)       1 (23.8 %)      2 (11.9 %)      3 (56.6 %)
         4 (40.8 %)      5 (21.0 %)      6 (8.1 %)       7 (4.1 %)
         8 (18.7 %)      9 (27.1 %)     10 (8.1 %)      11 (100.0 %)
        12 (17.8 %)     13 (56.2 %)     14 (5.0 %)      15 (68.8 %)
        16 (49.4 %)     17 (31.3 %)     18 (16.6 %)     19 (5.9 %)
        20 (35.3 %)     21 (17.9 %)     22 (27.0 %)     23 (47.0 %)
        24 (4.6 %)      25 (3.9 %)      26 (23.2 %)     27 (2.2 %)
        28 (3.7 %)      29 (7.4 %)      30 (32.3 %)     31 (100.0 %)
        32 (7.6 %)      33 (1.7 %)      34 (60.4 %)     35 (3.0 %)
        36 (16.2 %)     37 (15.7 %)     38 (6.4 %)      39 (100.0 %)
        40 (19.4 %)     41 (75.8 %)     42 (26.1 %)     43 (5.4 %)
        44 (3.9 %)      45 (3.7 %)      46 (8.3 %)      47 (2.6 %)
        Total: 1236.2%
Initial condition solution time: CPU = 3.053 ms, elapsed = 3.05486 ms.
Intrinsic tran analysis time:    CPU = 520.842 ms, elapsed = 522.286 ms.
Total time required for tran analysis `tran': CPU = 525.746 ms, elapsed = 527.841 ms, util. = 99.6%.
Time accumulated: CPU = 4.03631 s, elapsed = 4.73792 s.
Peak resident memory used = 214 Mbytes.


Notice from spectre during transient analysis `tran', during Monte Carlo analysis `mc1'.
    34 warnings suppressed.

finalTimeOP: writing operating point information to rawfile.

Opening the PSF file ../psf/mc1_separate/005/finalTimeOP.info ...
modelParameter: writing model parameter values to rawfile.

Opening the PSF file ../psf/mc1_separate/005/modelParameter.info ...
element: writing instance parameter values to rawfile.

Opening the PSF file ../psf/mc1_separate/005/element.info ...
outputParameter: writing output parameter values to rawfile.

Opening the PSF file ../psf/mc1_separate/005/outputParameter.info ...
designParamVals: writing netlist parameters to rawfile.

Opening the PSFASCII file ../psf/mc1_separate/005/designParamVals.info ...
primitives: writing primitives to rawfile.

Opening the PSFASCII file ../psf/mc1_separate/005/primitives.info.primitives ...
subckts: writing subcircuits to rawfile.

Opening the PSFASCII file ../psf/mc1_separate/005/subckts.info.subckts ...
    mc1: iteration = 5           (8.16 %), step = 1            (2.04 %)
6  10.20% 

*****************************************************************************************
* 
* INFO: AMS_processOption = C35B4C3
* 
* INFO: Valid Modules  PIP VG5 HIRES
* 
*****************************************************************************************


******************
DC Analysis `dcOp'
******************

Opening the PSF file ../psf/mc1_separate/006/dcOp.dc ...
Important parameter values:
    reltol = 100e-06
    abstol(V) = 1 uV
    abstol(I) = 1 pA
    temp = -40 C
    tnom = 27 C
    tempeffects = all
    gmindc = 1 pS
    rabsshort = 1 mOhm

Notice from spectre during DC analysis `dcOp', during Monte Carlo analysis `mc1'.
    GminDC = 1 pS is large enough to noticeably affect the DC solution.
        dV(vout) = -223.303 uV
        Use the `gmin_check' option to eliminate or expand this report.
    Bad pivoting is found during DC analysis. Option dc_pivot_check=yes is recommended for possible improvement of convergence.


Maximum value achieved for any signal of each quantity: 
V: V(S<0>) = 3.3 V
I: I(V0:p) = 6.47 uA
Maximum value of each quantity, excluding Verilog-A modules or dangling current sources:
V: V(net1) = 1.6 V
I: I(V0:p) = 6.47 uA

Warning from spectre during check, during DC analysis `dcOp', during Monte Carlo analysis `mc1'.
    WARNING (CMI-2943): Parameter checks have been ignored because the valid value for parameter 'trise' could not be found in 'C1'.
    WARNING (CMI-2943): Parameter checks have been ignored because the valid value for parameter 'trise' could not be found in 'I0.R2.CM'.
    WARNING (CMI-2943): Parameter checks have been ignored because the valid value for parameter 'trise' could not be found in 'I0.R2.CS1'.
    WARNING (CMI-2943): Parameter checks have been ignored because the valid value for parameter 'trise' could not be found in 'I0.R2.CS0'.
    WARNING (CMI-2943): Parameter checks have been ignored because the valid value for parameter 'trise' could not be found in 'I0.C8<3>.C1'.
        Further occurrences of this warning will be suppressed.

Convergence achieved in 19 iterations.
DC simulation time: CPU = 6.04 ms, elapsed = 7.54118 ms.
Total time required for dc analysis `dcOp': CPU = 6.569 ms, elapsed = 8.06904 ms, util. = 81.4%.
Time accumulated: CPU = 4.08116 s, elapsed = 4.79574 s.
Peak resident memory used = 214 Mbytes.


Notice from spectre during Monte Carlo analysis `mc1'.
    34 warnings suppressed.

dcOpInfo: writing operating point information to rawfile.

Opening the PSF file ../psf/mc1_separate/006/dcOpInfo.info ...

************************************************
Transient Analysis `tran': time = (0 s -> 40 ms)
************************************************

Opening the PSF file ../psf/mc1_separate/006/tran.tran.tran ...

Notice from spectre during IC analysis, during transient analysis `tran', during Monte Carlo analysis `mc1'.
    GminDC = 1 pS is large enough to noticeably affect the DC solution.
        dV(vout) = -223.303 uV
        Use the `gmin_check' option to eliminate or expand this report.
    Bad pivoting is found during DC analysis. Option dc_pivot_check=yes is recommended for possible improvement of convergence.
Warning from spectre during check, during IC analysis, during transient analysis `tran', during Monte Carlo analysis `mc1'.
    WARNING (CMI-2943): Parameter checks have been ignored because the valid value for parameter 'trise' could not be found in 'C1'.
    WARNING (CMI-2943): Parameter checks have been ignored because the valid value for parameter 'trise' could not be found in 'I0.R2.CM'.
    WARNING (CMI-2943): Parameter checks have been ignored because the valid value for parameter 'trise' could not be found in 'I0.R2.CS1'.
    WARNING (CMI-2943): Parameter checks have been ignored because the valid value for parameter 'trise' could not be found in 'I0.R2.CS0'.
    WARNING (CMI-2943): Parameter checks have been ignored because the valid value for parameter 'trise' could not be found in 'I0.C8<3>.C1'.
        Further occurrences of this warning will be suppressed.

Convergence achieved in 19 iterations.
DC simulation time: CPU = 3.042 ms, elapsed = 3.04198 ms.
Important parameter values:
    start = 0 s
    outputstart = 0 s
    stop = 40 ms
    step = 40 us
    maxstep = 400 us
    ic = all
    useprevic = no
    skipdc = no
    reltol = 10e-06
    abstol(V) = 1 uV
    abstol(I) = 1 pA
    temp = -40 C
    tnom = 27 C
    tempeffects = all
    errpreset = conservative
    method = gear2only
    lteratio = 10
    relref = alllocal
    cmin = 0 F
    gmin = 1 pS
    rabsshort = 1 mOhm


Notice from spectre during transient analysis `tran', during Monte Carlo analysis `mc1'.
    Multithreading is disabled due to the size of the design being too small.


Output and IC/nodeset summary:
                 save   8       (current)
                 save   87      (voltage)

    tran: time = 1.03 ms     (2.58 %), step = 47.65 us     (119 m%)
    tran: time = 3.044 ms    (7.61 %), step = 46.8 us      (117 m%)
    tran: time = 5.01 ms     (12.5 %), step = 49.35 us     (123 m%)
    tran: time = 7.024 ms    (17.6 %), step = 48.17 us     (120 m%)
    tran: time = 9.037 ms    (22.6 %), step = 47.2 us      (118 m%)
    tran: time = 11 ms       (27.5 %), step = 50 us        (125 m%)
    tran: time = 13.02 ms    (32.5 %), step = 48.74 us     (122 m%)
    tran: time = 15.03 ms    (37.6 %), step = 47.65 us     (119 m%)
    tran: time = 17.04 ms    (42.6 %), step = 46.8 us      (117 m%)
    tran: time = 19.01 ms    (47.5 %), step = 49.35 us     (123 m%)
    tran: time = 21.02 ms    (52.6 %), step = 48.17 us     (120 m%)
    tran: time = 23.04 ms    (57.6 %), step = 47.2 us      (118 m%)
    tran: time = 25 ms       (62.5 %), step = 50 us        (125 m%)
    tran: time = 27.02 ms    (67.5 %), step = 48.73 us     (122 m%)
    tran: time = 29.03 ms    (72.6 %), step = 47.64 us     (119 m%)
    tran: time = 31.04 ms    (77.6 %), step = 46.8 us      (117 m%)
    tran: time = 33.01 ms    (82.5 %), step = 49.34 us     (123 m%)
    tran: time = 35.02 ms    (87.6 %), step = 48.17 us     (120 m%)
    tran: time = 37.04 ms    (92.6 %), step = 47.2 us      (118 m%)
    tran: time = 39 ms       (97.5 %), step = 50 us        (125 m%)
Number of accepted tran steps =             851

Maximum value achieved for any signal of each quantity: 
V: V(S<0>) = 3.3 V
I: I(V0:p) = 6.471 uA
Maximum value of each quantity, excluding Verilog-A modules or dangling current sources:
V: V(vout_filt) = 1.613 V
I: I(V0:p) = 6.471 uA

~~~~~~~~~~~~~~~~~~~~~~~~~~~~~~~~~
Post-Transient Simulation Summary
~~~~~~~~~~~~~~~~~~~~~~~~~~~~~~~~~
   -   To further speed up simulation, consider
          add ++aps on command line
   -   Non-default settings that could significantly slow down simulation
          errpreset = conservative, default moderate
          reltol = 10e-06, default 100e-06 (conservative)
~~~~~~~~~~~~~~~~~~~~~~~~~~~~~~~~~


During simulation, the CPU load for active processors is :
         0 (3.9 %)       1 (21.6 %)      2 (12.9 %)      3 (51.3 %)
         4 (46.3 %)      5 (30.1 %)      6 (7.5 %)       7 (3.9 %)
         8 (17.2 %)      9 (24.1 %)     10 (7.5 %)      11 (100.0 %)
        12 (16.9 %)     13 (60.6 %)     14 (5.2 %)      15 (63.1 %)
        16 (44.0 %)     17 (39.2 %)     18 (21.2 %)     19 (6.4 %)
        20 (31.9 %)     21 (22.4 %)     22 (24.5 %)     23 (46.7 %)
        24 (4.1 %)      25 (10.2 %)     26 (20.8 %)     27 (8.7 %)
        28 (4.3 %)      29 (10.0 %)     30 (29.9 %)     31 (100.0 %)
        32 (7.5 %)      33 (1.7 %)      34 (58.1 %)     35 (2.9 %)
        36 (14.8 %)     37 (16.2 %)     38 (7.2 %)      39 (100.0 %)
        40 (17.6 %)     41 (67.4 %)     42 (34.0 %)     43 (5.0 %)
        44 (3.7 %)      45 (3.5 %)      46 (7.9 %)      47 (2.7 %)
        Total: 1246.4%
Initial condition solution time: CPU = 3.076 ms, elapsed = 3.07822 ms.
Intrinsic tran analysis time:    CPU = 521.999 ms, elapsed = 524.09 ms.
Total time required for tran analysis `tran': CPU = 527.008 ms, elapsed = 529.62 ms, util. = 99.5%.
Time accumulated: CPU = 4.61562 s, elapsed = 5.33521 s.
Peak resident memory used = 214 Mbytes.


Notice from spectre during transient analysis `tran', during Monte Carlo analysis `mc1'.
    34 warnings suppressed.

finalTimeOP: writing operating point information to rawfile.

Opening the PSF file ../psf/mc1_separate/006/finalTimeOP.info ...
modelParameter: writing model parameter values to rawfile.

Opening the PSF file ../psf/mc1_separate/006/modelParameter.info ...
element: writing instance parameter values to rawfile.

Opening the PSF file ../psf/mc1_separate/006/element.info ...
outputParameter: writing output parameter values to rawfile.

Opening the PSF file ../psf/mc1_separate/006/outputParameter.info ...
designParamVals: writing netlist parameters to rawfile.

Opening the PSFASCII file ../psf/mc1_separate/006/designParamVals.info ...
primitives: writing primitives to rawfile.

Opening the PSFASCII file ../psf/mc1_separate/006/primitives.info.primitives ...
subckts: writing subcircuits to rawfile.

Opening the PSFASCII file ../psf/mc1_separate/006/subckts.info.subckts ...
    mc1: iteration = 6           (10.2 %), step = 1            (2.04 %)
7  12.24% 

*****************************************************************************************
* 
* INFO: AMS_processOption = C35B4C3
* 
* INFO: Valid Modules  PIP VG5 HIRES
* 
*****************************************************************************************


******************
DC Analysis `dcOp'
******************

Opening the PSF file ../psf/mc1_separate/007/dcOp.dc ...
Important parameter values:
    reltol = 100e-06
    abstol(V) = 1 uV
    abstol(I) = 1 pA
    temp = -40 C
    tnom = 27 C
    tempeffects = all
    gmindc = 1 pS
    rabsshort = 1 mOhm

Notice from spectre during DC analysis `dcOp', during Monte Carlo analysis `mc1'.
    GminDC = 1 pS is large enough to noticeably affect the DC solution.
        dV(vout) = -223.712 uV
        Use the `gmin_check' option to eliminate or expand this report.
    Bad pivoting is found during DC analysis. Option dc_pivot_check=yes is recommended for possible improvement of convergence.


Maximum value achieved for any signal of each quantity: 
V: V(S<0>) = 3.3 V
I: I(V0:p) = 6.663 uA
Maximum value of each quantity, excluding Verilog-A modules or dangling current sources:
V: V(vout_filt) = 1.601 V
I: I(V0:p) = 6.663 uA

Warning from spectre during check, during DC analysis `dcOp', during Monte Carlo analysis `mc1'.
    WARNING (CMI-2943): Parameter checks have been ignored because the valid value for parameter 'trise' could not be found in 'C1'.
    WARNING (CMI-2943): Parameter checks have been ignored because the valid value for parameter 'trise' could not be found in 'I0.R2.CM'.
    WARNING (CMI-2943): Parameter checks have been ignored because the valid value for parameter 'trise' could not be found in 'I0.R2.CS1'.
    WARNING (CMI-2943): Parameter checks have been ignored because the valid value for parameter 'trise' could not be found in 'I0.R2.CS0'.
    WARNING (CMI-2943): Parameter checks have been ignored because the valid value for parameter 'trise' could not be found in 'I0.C8<3>.C1'.
        Further occurrences of this warning will be suppressed.

Convergence achieved in 19 iterations.
DC simulation time: CPU = 6.085 ms, elapsed = 7.43103 ms.
Total time required for dc analysis `dcOp': CPU = 6.724 ms, elapsed = 8.06999 ms, util. = 83.3%.
Time accumulated: CPU = 4.66077 s, elapsed = 5.3937 s.
Peak resident memory used = 214 Mbytes.


Notice from spectre during Monte Carlo analysis `mc1'.
    34 warnings suppressed.

dcOpInfo: writing operating point information to rawfile.

Opening the PSF file ../psf/mc1_separate/007/dcOpInfo.info ...

************************************************
Transient Analysis `tran': time = (0 s -> 40 ms)
************************************************

Opening the PSF file ../psf/mc1_separate/007/tran.tran.tran ...

Notice from spectre during IC analysis, during transient analysis `tran', during Monte Carlo analysis `mc1'.
    GminDC = 1 pS is large enough to noticeably affect the DC solution.
        dV(vout) = -223.712 uV
        Use the `gmin_check' option to eliminate or expand this report.
    Bad pivoting is found during DC analysis. Option dc_pivot_check=yes is recommended for possible improvement of convergence.
Warning from spectre during check, during IC analysis, during transient analysis `tran', during Monte Carlo analysis `mc1'.
    WARNING (CMI-2943): Parameter checks have been ignored because the valid value for parameter 'trise' could not be found in 'C1'.
[...]
element: writing instance parameter values to rawfile.

Opening the PSF file ../psf/mc1_separate/048/element.info ...
outputParameter: writing output parameter values to rawfile.

Opening the PSF file ../psf/mc1_separate/048/outputParameter.info ...
designParamVals: writing netlist parameters to rawfile.

Opening the PSFASCII file ../psf/mc1_separate/048/designParamVals.info ...
primitives: writing primitives to rawfile.

Opening the PSFASCII file ../psf/mc1_separate/048/primitives.info.primitives ...
subckts: writing subcircuits to rawfile.

Opening the PSFASCII file ../psf/mc1_separate/048/subckts.info.subckts ...
    mc1: iteration = 48          (95.9 %), step = 1            (2.04 %)
49  97.96% 

*****************************************************************************************
* 
* INFO: AMS_processOption = C35B4C3
* 
* INFO: Valid Modules  PIP VG5 HIRES
* 
*****************************************************************************************


******************
DC Analysis `dcOp'
******************

Opening the PSF file ../psf/mc1_separate/049/dcOp.dc ...
Important parameter values:
    reltol = 100e-06
    abstol(V) = 1 uV
    abstol(I) = 1 pA
    temp = -40 C
    tnom = 27 C
    tempeffects = all
    gmindc = 1 pS
    rabsshort = 1 mOhm

Notice from spectre during DC analysis `dcOp', during Monte Carlo analysis `mc1'.
    GminDC = 1 pS is large enough to noticeably affect the DC solution.
        dV(vout) = -223.55 uV
        Use the `gmin_check' option to eliminate or expand this report.
    Bad pivoting is found during DC analysis. Option dc_pivot_check=yes is recommended for possible improvement of convergence.


Maximum value achieved for any signal of each quantity: 
V: V(S<0>) = 3.3 V
I: I(V0:p) = 6.514 uA
Maximum value of each quantity, excluding Verilog-A modules or dangling current sources:
V: V(vout_filt) = 1.6 V
I: I(V0:p) = 6.514 uA

Warning from spectre during check, during DC analysis `dcOp', during Monte Carlo analysis `mc1'.
    WARNING (CMI-2943): Parameter checks have been ignored because the valid value for parameter 'trise' could not be found in 'C1'.
    WARNING (CMI-2943): Parameter checks have been ignored because the valid value for parameter 'trise' could not be found in 'I0.R2.CM'.
    WARNING (CMI-2943): Parameter checks have been ignored because the valid value for parameter 'trise' could not be found in 'I0.R2.CS1'.
    WARNING (CMI-2943): Parameter checks have been ignored because the valid value for parameter 'trise' could not be found in 'I0.R2.CS0'.
    WARNING (CMI-2943): Parameter checks have been ignored because the valid value for parameter 'trise' could not be found in 'I0.C8<3>.C1'.
        Further occurrences of this warning will be suppressed.

Convergence achieved in 19 iterations.
DC simulation time: CPU = 5.861 ms, elapsed = 7.25889 ms.
Total time required for dc analysis `dcOp': CPU = 6.347 ms, elapsed = 7.74598 ms, util. = 81.9%.
Time accumulated: CPU = 28.8027 s, elapsed = 30.2959 s.
Peak resident memory used = 215 Mbytes.


Notice from spectre during Monte Carlo analysis `mc1'.
    34 warnings suppressed.

dcOpInfo: writing operating point information to rawfile.

Opening the PSF file ../psf/mc1_separate/049/dcOpInfo.info ...

************************************************
Transient Analysis `tran': time = (0 s -> 40 ms)
************************************************

Opening the PSF file ../psf/mc1_separate/049/tran.tran.tran ...

Notice from spectre during IC analysis, during transient analysis `tran', during Monte Carlo analysis `mc1'.
    GminDC = 1 pS is large enough to noticeably affect the DC solution.
        dV(vout) = -223.55 uV
        Use the `gmin_check' option to eliminate or expand this report.
    Bad pivoting is found during DC analysis. Option dc_pivot_check=yes is recommended for possible improvement of convergence.
Warning from spectre during check, during IC analysis, during transient analysis `tran', during Monte Carlo analysis `mc1'.
    WARNING (CMI-2943): Parameter checks have been ignored because the valid value for parameter 'trise' could not be found in 'C1'.
    WARNING (CMI-2943): Parameter checks have been ignored because the valid value for parameter 'trise' could not be found in 'I0.R2.CM'.
    WARNING (CMI-2943): Parameter checks have been ignored because the valid value for parameter 'trise' could not be found in 'I0.R2.CS1'.
    WARNING (CMI-2943): Parameter checks have been ignored because the valid value for parameter 'trise' could not be found in 'I0.R2.CS0'.
    WARNING (CMI-2943): Parameter checks have been ignored because the valid value for parameter 'trise' could not be found in 'I0.C8<3>.C1'.
        Further occurrences of this warning will be suppressed.

Convergence achieved in 19 iterations.
DC simulation time: CPU = 3.006 ms, elapsed = 3.00694 ms.
Important parameter values:
    start = 0 s
    outputstart = 0 s
    stop = 40 ms
    step = 40 us
    maxstep = 400 us
    ic = all
    useprevic = no
    skipdc = no
    reltol = 10e-06
    abstol(V) = 1 uV
    abstol(I) = 1 pA
    temp = -40 C
    tnom = 27 C
    tempeffects = all
    errpreset = conservative
    method = gear2only
    lteratio = 10
    relref = alllocal
    cmin = 0 F
    gmin = 1 pS
    rabsshort = 1 mOhm


Notice from spectre during transient analysis `tran', during Monte Carlo analysis `mc1'.
    Multithreading is disabled due to the size of the design being too small.


Output and IC/nodeset summary:
                 save   8       (current)
                 save   87      (voltage)

    tran: time = 1.03 ms     (2.58 %), step = 47.66 us     (119 m%)
    tran: time = 3.044 ms    (7.61 %), step = 46.8 us      (117 m%)
    tran: time = 5.011 ms    (12.5 %), step = 49.32 us     (123 m%)
    tran: time = 7.024 ms    (17.6 %), step = 48.13 us     (120 m%)
    tran: time = 9.038 ms    (22.6 %), step = 47.16 us     (118 m%)
    tran: time = 11 ms       (27.5 %), step = 49.94 us     (125 m%)
    tran: time = 13.02 ms    (32.5 %), step = 48.64 us     (122 m%)
    tran: time = 15.03 ms    (37.6 %), step = 47.56 us     (119 m%)
    tran: time = 17.05 ms    (42.6 %), step = 46.72 us     (117 m%)
    tran: time = 19.01 ms    (47.5 %), step = 49.19 us     (123 m%)
    tran: time = 21.03 ms    (52.6 %), step = 48.02 us     (120 m%)
    tran: time = 23.04 ms    (57.6 %), step = 47.08 us     (118 m%)
    tran: time = 25.01 ms    (62.5 %), step = 49.8 us      (125 m%)
    tran: time = 27.02 ms    (67.5 %), step = 48.53 us     (121 m%)
    tran: time = 29.03 ms    (72.6 %), step = 47.47 us     (119 m%)
    tran: time = 31.05 ms    (77.6 %), step = 46.65 us     (117 m%)
    tran: time = 33.01 ms    (82.5 %), step = 49.07 us     (123 m%)
    tran: time = 35.03 ms    (87.6 %), step = 47.92 us     (120 m%)
    tran: time = 37.04 ms    (92.6 %), step = 47 us        (117 m%)
    tran: time = 39.01 ms    (97.5 %), step = 49.67 us     (124 m%)
Number of accepted tran steps =             851

Maximum value achieved for any signal of each quantity: 
V: V(S<0>) = 3.3 V
I: I(V0:p) = 6.514 uA
Maximum value of each quantity, excluding Verilog-A modules or dangling current sources:
V: V(vout_filt) = 1.614 V
I: I(V0:p) = 6.514 uA

~~~~~~~~~~~~~~~~~~~~~~~~~~~~~~~~~
Post-Transient Simulation Summary
~~~~~~~~~~~~~~~~~~~~~~~~~~~~~~~~~
   -   To further speed up simulation, consider
          add ++aps on command line
   -   Non-default settings that could significantly slow down simulation
          errpreset = conservative, default moderate
          reltol = 10e-06, default 100e-06 (conservative)
~~~~~~~~~~~~~~~~~~~~~~~~~~~~~~~~~


During simulation, the CPU load for active processors is :
         0 (6.5 %)       1 (11.3 %)      2 (17.4 %)      3 (23.8 %)
         4 (39.7 %)      5 (50.5 %)      6 (17.8 %)      7 (17.4 %)
         8 (15.6 %)      9 (41.0 %)     10 (15.0 %)     11 (100.0 %)
        12 (15.1 %)     13 (27.2 %)     14 (17.0 %)     15 (43.2 %)
        16 (26.2 %)     17 (24.5 %)     18 (47.3 %)     19 (55.3 %)
        20 (37.5 %)     21 (25.9 %)     22 (44.7 %)     23 (33.2 %)
        24 (17.7 %)     25 (20.3 %)     26 (44.8 %)     27 (17.8 %)
        28 (38.6 %)     29 (28.1 %)     30 (29.2 %)     31 (100.0 %)
        32 (14.7 %)     33 (27.8 %)     34 (16.0 %)     35 (6.0 %)
        36 (29.3 %)     37 (23.5 %)     38 (51.4 %)     39 (100.0 %)
        40 (14.9 %)     41 (30.6 %)     42 (26.1 %)     43 (11.7 %)
        44 (12.9 %)     45 (8.9 %)      46 (9.3 %)      47 (4.9 %)
        Total: 1437.8%
Initial condition solution time: CPU = 3.036 ms, elapsed = 3.03912 ms.
Intrinsic tran analysis time:    CPU = 516.019 ms, elapsed = 517.607 ms.
Total time required for tran analysis `tran': CPU = 521.038 ms, elapsed = 523.213 ms, util. = 99.6%.
Time accumulated: CPU = 29.3313 s, elapsed = 30.8292 s.
Peak resident memory used = 215 Mbytes.


Notice from spectre during transient analysis `tran', during Monte Carlo analysis `mc1'.
    34 warnings suppressed.

finalTimeOP: writing operating point information to rawfile.

Opening the PSF file ../psf/mc1_separate/049/finalTimeOP.info ...
modelParameter: writing model parameter values to rawfile.

Opening the PSF file ../psf/mc1_separate/049/modelParameter.info ...
element: writing instance parameter values to rawfile.

Opening the PSF file ../psf/mc1_separate/049/element.info ...
outputParameter: writing output parameter values to rawfile.

Opening the PSF file ../psf/mc1_separate/049/outputParameter.info ...
designParamVals: writing netlist parameters to rawfile.

Opening the PSFASCII file ../psf/mc1_separate/049/designParamVals.info ...
primitives: writing primitives to rawfile.

Opening the PSFASCII file ../psf/mc1_separate/049/primitives.info.primitives ...
subckts: writing subcircuits to rawfile.

Opening the PSFASCII file ../psf/mc1_separate/049/subckts.info.subckts ...
    mc1: iteration = 49            (98 %), step = 1            (2.04 %)
50 100.00% 

*****************************************************************************************
* 
* INFO: AMS_processOption = C35B4C3
* 
* INFO: Valid Modules  PIP VG5 HIRES
* 
*****************************************************************************************


******************
DC Analysis `dcOp'
******************

Opening the PSF file ../psf/mc1_separate/050/dcOp.dc ...
Important parameter values:
    reltol = 100e-06
    abstol(V) = 1 uV
    abstol(I) = 1 pA
    temp = -40 C
    tnom = 27 C
    tempeffects = all
    gmindc = 1 pS
    rabsshort = 1 mOhm

Notice from spectre during DC analysis `dcOp', during Monte Carlo analysis `mc1'.
    GminDC = 1 pS is large enough to noticeably affect the DC solution.
        dV(vout) = -223.535 uV
        Use the `gmin_check' option to eliminate or expand this report.
    Bad pivoting is found during DC analysis. Option dc_pivot_check=yes is recommended for possible improvement of convergence.


Maximum value achieved for any signal of each quantity: 
V: V(S<0>) = 3.3 V
I: I(V0:p) = 6.443 uA
Maximum value of each quantity, excluding Verilog-A modules or dangling current sources:
V: V(vout_filt) = 1.601 V
I: I(V0:p) = 6.443 uA

Warning from spectre during check, during DC analysis `dcOp', during Monte Carlo analysis `mc1'.
    WARNING (CMI-2943): Parameter checks have been ignored because the valid value for parameter 'trise' could not be found in 'C1'.
    WARNING (CMI-2943): Parameter checks have been ignored because the valid value for parameter 'trise' could not be found in 'I0.R2.CM'.
    WARNING (CMI-2943): Parameter checks have been ignored because the valid value for parameter 'trise' could not be found in 'I0.R2.CS1'.
    WARNING (CMI-2943): Parameter checks have been ignored because the valid value for parameter 'trise' could not be found in 'I0.R2.CS0'.
    WARNING (CMI-2943): Parameter checks have been ignored because the valid value for parameter 'trise' could not be found in 'I0.C8<3>.C1'.
        Further occurrences of this warning will be suppressed.

Convergence achieved in 19 iterations.
DC simulation time: CPU = 6.019 ms, elapsed = 7.77388 ms.
Total time required for dc analysis `dcOp': CPU = 6.52 ms, elapsed = 8.27479 ms, util. = 78.8%.
Time accumulated: CPU = 29.3768 s, elapsed = 30.8886 s.
Peak resident memory used = 215 Mbytes.


Notice from spectre during Monte Carlo analysis `mc1'.
    34 warnings suppressed.

dcOpInfo: writing operating point information to rawfile.

Opening the PSF file ../psf/mc1_separate/050/dcOpInfo.info ...

************************************************
Transient Analysis `tran': time = (0 s -> 40 ms)
************************************************

Opening the PSF file ../psf/mc1_separate/050/tran.tran.tran ...

Notice from spectre during IC analysis, during transient analysis `tran', during Monte Carlo analysis `mc1'.
    GminDC = 1 pS is large enough to noticeably affect the DC solution.
        dV(vout) = -223.535 uV
        Use the `gmin_check' option to eliminate or expand this report.
    Bad pivoting is found during DC analysis. Option dc_pivot_check=yes is recommended for possible improvement of convergence.
Warning from spectre during check, during IC analysis, during transient analysis `tran', during Monte Carlo analysis `mc1'.
    WARNING (CMI-2943): Parameter checks have been ignored because the valid value for parameter 'trise' could not be found in 'C1'.
    WARNING (CMI-2943): Parameter checks have been ignored because the valid value for parameter 'trise' could not be found in 'I0.R2.CM'.
    WARNING (CMI-2943): Parameter checks have been ignored because the valid value for parameter 'trise' could not be found in 'I0.R2.CS1'.
    WARNING (CMI-2943): Parameter checks have been ignored because the valid value for parameter 'trise' could not be found in 'I0.R2.CS0'.
    WARNING (CMI-2943): Parameter checks have been ignored because the valid value for parameter 'trise' could not be found in 'I0.C8<3>.C1'.
        Further occurrences of this warning will be suppressed.

Convergence achieved in 19 iterations.
DC simulation time: CPU = 3.094 ms, elapsed = 3.0942 ms.
Important parameter values:
    start = 0 s
    outputstart = 0 s
    stop = 40 ms
    step = 40 us
    maxstep = 400 us
    ic = all
    useprevic = no
    skipdc = no
    reltol = 10e-06
    abstol(V) = 1 uV
    abstol(I) = 1 pA
    temp = -40 C
    tnom = 27 C
    tempeffects = all
    errpreset = conservative
    method = gear2only
    lteratio = 10
    relref = alllocal
    cmin = 0 F
    gmin = 1 pS
    rabsshort = 1 mOhm


Notice from spectre during transient analysis `tran', during Monte Carlo analysis `mc1'.
    Multithreading is disabled due to the size of the design being too small.


Output and IC/nodeset summary:
                 save   8       (current)
                 save   87      (voltage)

    tran: time = 1.031 ms    (2.58 %), step = 47.65 us     (119 m%)
    tran: time = 3.044 ms    (7.61 %), step = 46.79 us     (117 m%)
    tran: time = 5.011 ms    (12.5 %), step = 49.28 us     (123 m%)
    tran: time = 7.025 ms    (17.6 %), step = 48.09 us     (120 m%)
    tran: time = 9.039 ms    (22.6 %), step = 47.12 us     (118 m%)
    tran: time = 11.01 ms    (27.5 %), step = 49.85 us     (125 m%)
    tran: time = 13.02 ms    (32.5 %), step = 48.56 us     (121 m%)
    tran: time = 15.03 ms    (37.6 %), step = 47.49 us     (119 m%)
    tran: time = 17.05 ms    (42.6 %), step = 46.66 us     (117 m%)
    tran: time = 19.01 ms    (47.5 %), step = 49.06 us     (123 m%)
    tran: time = 21.03 ms    (52.6 %), step = 47.89 us     (120 m%)
    tran: time = 23.04 ms    (57.6 %), step = 46.97 us     (117 m%)
    tran: time = 25.01 ms    (62.5 %), step = 49.6 us      (124 m%)
    tran: time = 27.02 ms    (67.6 %), step = 48.35 us     (121 m%)
    tran: time = 29.04 ms    (72.6 %), step = 47.32 us     (118 m%)
    tran: time = 31 ms       (77.5 %), step = 50 us        (125 m%)
    tran: time = 33.02 ms    (82.5 %), step = 48.83 us     (122 m%)
    tran: time = 35.03 ms    (87.6 %), step = 47.7 us      (119 m%)
    tran: time = 37.04 ms    (92.6 %), step = 46.83 us     (117 m%)
    tran: time = 39.01 ms    (97.5 %), step = 49.35 us     (123 m%)
Number of accepted tran steps =             851

Maximum value achieved for any signal of each quantity: 
V: V(S<0>) = 3.3 V
I: I(V0:p) = 6.443 uA
Maximum value of each quantity, excluding Verilog-A modules or dangling current sources:
V: V(vout_filt) = 1.614 V
I: I(V0:p) = 6.443 uA

~~~~~~~~~~~~~~~~~~~~~~~~~~~~~~~~~
Post-Transient Simulation Summary
~~~~~~~~~~~~~~~~~~~~~~~~~~~~~~~~~
   -   To further speed up simulation, consider
          add ++aps on command line
   -   Non-default settings that could significantly slow down simulation
          errpreset = conservative, default moderate
          reltol = 10e-06, default 100e-06 (conservative)
~~~~~~~~~~~~~~~~~~~~~~~~~~~~~~~~~


During simulation, the CPU load for active processors is :
         0 (6.4 %)       1 (11.2 %)      2 (17.2 %)      3 (23.4 %)
         4 (40.7 %)      5 (49.7 %)      6 (17.9 %)      7 (17.3 %)
         8 (15.4 %)      9 (42.1 %)     10 (14.8 %)     11 (100.0 %)
        12 (15.1 %)     13 (26.8 %)     14 (16.7 %)     15 (44.3 %)
        16 (25.7 %)     17 (24.2 %)     18 (48.3 %)     19 (54.3 %)
        20 (38.8 %)     21 (25.5 %)     22 (43.9 %)     23 (32.6 %)
        24 (17.4 %)     25 (19.9 %)     26 (43.9 %)     27 (19.4 %)
        28 (37.9 %)     29 (29.5 %)     30 (28.7 %)     31 (100.0 %)
        32 (14.4 %)     33 (29.1 %)     34 (15.7 %)     35 (6.0 %)
        36 (28.8 %)     37 (23.4 %)     38 (50.5 %)     39 (100.0 %)
        40 (14.7 %)     41 (30.1 %)     42 (25.8 %)     43 (11.5 %)
        44 (14.5 %)     45 (10.7 %)     46 (9.2 %)      47 (4.8 %)
        Total: 1437.9%
Initial condition solution time: CPU = 3.127 ms, elapsed = 3.12805 ms.
Intrinsic tran analysis time:    CPU = 523.09 ms, elapsed = 524.793 ms.
Total time required for tran analysis `tran': CPU = 528.218 ms, elapsed = 530.501 ms, util. = 99.6%.
Time accumulated: CPU = 29.9128 s, elapsed = 31.4293 s.
Peak resident memory used = 215 Mbytes.


Notice from spectre during transient analysis `tran', during Monte Carlo analysis `mc1'.
    34 warnings suppressed.

finalTimeOP: writing operating point information to rawfile.

Opening the PSF file ../psf/mc1_separate/050/finalTimeOP.info ...
modelParameter: writing model parameter values to rawfile.

Opening the PSF file ../psf/mc1_separate/050/modelParameter.info ...
element: writing instance parameter values to rawfile.

Opening the PSF file ../psf/mc1_separate/050/element.info ...
outputParameter: writing output parameter values to rawfile.

Opening the PSF file ../psf/mc1_separate/050/outputParameter.info ...
designParamVals: writing netlist parameters to rawfile.

Opening the PSFASCII file ../psf/mc1_separate/050/designParamVals.info ...
primitives: writing primitives to rawfile.

Opening the PSFASCII file ../psf/mc1_separate/050/primitives.info.primitives ...
subckts: writing subcircuits to rawfile.

Opening the PSFASCII file ../psf/mc1_separate/050/subckts.info.subckts ...
    mc1: iteration = 50           (100 %), step = 1            (2.04 %)
Total time required for montecarlo analysis `mc1': CPU = 29.4752 s, elapsed = 30.4094 s, util. = 96.9%.
Time accumulated: CPU = 29.9424 s, elapsed = 31.4722 s.
Peak resident memory used = 215 Mbytes.

Licensing Information:
Lic Summary:
[09:09:56.471027] Cdslmd servers:3000@lic08.ug.kth.se:29000@lic06.ug.kth.se
[09:09:56.995360] Feature usage summary:
[09:09:56.995361] Virtuoso_Multi_mode_Simulation


Aggregate audit (9:09:56 AM, Thur Apr 16, 2026):
Time used: CPU = 30 s, elapsed = 31.5 s, util. = 95.1%.
Time spent in licensing: elapsed = 52.2 ms.
Peak memory used = 215 Mbytes.
Simulation started at: 9:09:25 AM, Thur Apr 16, 2026, ended at: 9:09:56 AM, Thur Apr 16, 2026, with elapsed time (wall clock): 31.5 s.
spectre completes with 0 errors, 527 warnings, and 364 notices.
