
Spectre (R) Circuit Simulator
Version 24.1.0.288.isr5 64bit -- 3 Apr 2025
Copyright (C) 1989-2025 Cadence Design Systems, Inc. All rights reserved worldwide. Cadence and Spectre are registered trademarks of Cadence Design Systems, Inc. All others are the property of their respective holders.

Includes RSA BSAFE(R) Cryptographic or Security Protocol Software from RSA Security, Inc.

User: davidevi   Host: il2244vt26_davidevi   HostID: 11AC2C00   PID: 1065262
Memory  available: 3.0351 TB  physical: 3.2467 TB
Linux   : Rocky Linux release 8.10 (Green Obsidian)
CPU Type: Intel(R) Xeon(R) CPU E7-8857 v2 @ 3.00GHz
        Socket: Processors [Frequency]
        0:       0 [2999.9],  1 [2999.9],  2 [1200.0],  3 [1200.0],  4 [1200.0]
                 5 [1200.0],  6 [2400.0],  7 [1200.0],  8 [1200.0],  9 [2400.0]
                10 [1200.0], 11 [2999.9]
        1:      12 [3500.0], 13 [3600.0], 14 [1200.0], 15 [3600.0], 16 [2999.9]
                17 [2999.9], 18 [3600.0], 19 [1600.0], 20 [3400.0], 21 [3400.0]
                22 [2999.9], 23 [2999.9]
        2:      24 [2999.9], 25 [2999.9], 26 [2800.0], 27 [1500.0], 28 [1200.0]
                29 [1200.0], 30 [1200.0], 31 [1200.0], 32 [3600.0], 33 [1200.0]
                34 [3500.0], 35 [2999.9]
        3:      36 [2999.9], 37 [3600.0], 38 [1200.0], 39 [3600.0], 40 [2999.9]
                41 [3600.0], 42 [3600.0], 43 [3600.0], 44 [3400.0], 45 [1200.0]
                46 [1200.0], 47 [2900.0]
        
System load averages (1min, 5min, 15min) : 22.2 %, 25.3 %, 22.1 %
HPC is enabled


Simulating `input.scs' on il2244vt26_davidevi at 9:33:56 AM, Thur Apr 16, 2026 (process id: 1065262).
Current working directory: /home/davidevi/Desktop/myproject/Sim/VGA/VGA_1_wakeup_tb/adexl/results/data/MonteCarlo.1/1/wakeup/groupRunDataDir/netlist
Command line:
    /opt/tools/cadence/installs/SPECTRE241/tools/bin/spectre -64  \
        input.scs +escchars +log ../psf/spectre.out -format psfbin  \
        +rtsf -raw ../psf +aps +mt +lqtimeout 900 -maxw 5 -maxn 5  \
        +param /opt/pdk/ams/410/spectre/ams_range.lmts -env ade  \
        -ahdllibdir  \
        /home/davidevi/Desktop/myproject/Sim/VGA/VGA_1_wakeup_tb/adexl/results/data/MonteCarlo.1/sharedData/Job487/ahdl/input.ahdlSimDB  \
        +logstatus  \
        +adespetkn=0001089D13A302B663E41FB550AF0DF415A679A322D5069144BF588C12F604E07EF416DC01A319B562BB63D347CC018545A31CF928FB1E9207FF579462CE4F927BAF79D15D9175FF34986BDD0AF002BA50FD7FD707E002A700AC1C8013FB4DE60EAD79D12EF874D3349879D118F874D334981031B5FBD9D05D78000036BA

Simulation Id: uVZBVO3gjAAwarO7
Licensing Information:
[09:33:57.121818] Configured Lic search path (24.01-s002): 3000@lic08.ug.kth.se:29000@lic06.ug.kth.se

Licensing Information:
[09:33:57.172265] Periodic Lic check successful

Loading /opt/tools/cadence/installs/SPECTRE241/tools.lnx86/cmi/lib/64bit/5.0/libinfineon_sh.so ...
Loading /opt/tools/cadence/installs/SPECTRE241/tools.lnx86/cmi/lib/64bit/5.0/libphilips_I_sh.so ...
Loading /opt/tools/cadence/installs/SPECTRE241/tools.lnx86/cmi/lib/64bit/5.0/libphilips_sh.so ...
Loading /opt/tools/cadence/installs/SPECTRE241/tools.lnx86/cmi/lib/64bit/5.0/libsparam_sh.so ...
Loading /opt/tools/cadence/installs/SPECTRE241/tools.lnx86/cmi/lib/64bit/5.0/libstmodels_sh.so ...

Warning from spectre.
    WARNING (SPECTRE-691): This CPU processor does not support x86 advanced vector extensions instructions. This may affect math operations and slow down the simulation.

Reading file:  /home/davidevi/Desktop/myproject/Sim/VGA/VGA_1_wakeup_tb/adexl/results/data/MonteCarlo.1/1/wakeup/groupRunDataDir/netlist/input.scs
Reading file:  /opt/pdk/ams/410/spectre/ams_range.lmts

Warning from spectre during read of parameter soft limits file `/opt/pdk/ams/410/spectre/ams_range.lmts', during circuit read-in.
    WARNING (SPECTRE-8360): line 1511: `ac' is an undefined primitive device.
    WARNING (SPECTRE-8360): line 1512: `ac' is an undefined primitive device.
    WARNING (SPECTRE-8360): line 1513: `ac' is an undefined primitive device.
    WARNING (SPECTRE-8360): line 1514: `ac' is an undefined primitive device.
    WARNING (SPECTRE-8360): line 1515: `ac' is an undefined primitive device.
        Further occurrences of this warning will be suppressed.

Reading file:  /opt/tools/cadence/installs/SPECTRE241/tools.lnx86/spectre/etc/configs/spectre.cfg
Reading file:  /opt/pdk/ams/410/spectre/c35/soac/soac.scs
Reading file:  /opt/pdk/ams/410/spectre/c35/soac/processOption.scs
Reading file:  /opt/pdk/ams/410/spectre/c35/soac/process.scs
Reading file:  /opt/pdk/ams/410/spectre/c35/soac/soac.va

Warning from spectre during AHDL read-in.
    WARNING (VACOMP-2435): The environment variable CDS_AHDLCMI_ENABLE is no longer supported. Therefore, the simulator will use the default compiled C code flow.

Reading link:  /opt/tools/cadence/installs/SPECTRE241/tools.lnx86/spectre/etc/ahdl/constants.h
Reading file:  /opt/tools/cadence/installs/SPECTRE241/tools.lnx86/spectre/etc/ahdl/constants.vams
Reading link:  /opt/tools/cadence/installs/SPECTRE241/tools.lnx86/spectre/etc/ahdl/discipline.h
Reading file:  /opt/tools/cadence/installs/SPECTRE241/tools.lnx86/spectre/etc/ahdl/disciplines.vams
Reading file:  /opt/pdk/ams/410/spectre/c35/processOption/C35B4C3.scs
Reading file:  /opt/pdk/ams/410/spectre/c35/soac/cmos53.scs
Reading file:  /opt/pdk/ams/410/spectre/c35/soac/res.scs
Reading file:  /opt/pdk/ams/410/spectre/c35/soac/cap.scs
Reading file:  /opt/pdk/ams/410/spectre/c35/soac/bip.scs
Reading file:  /opt/pdk/ams/410/spectre/c35/soac/ind.scs
Reading file:  /opt/pdk/ams/410/spectre/c35/soac/esddiode.scs
Time for NDB Parsing: CPU = 167.244 ms, elapsed = 332.445 ms.
Time accumulated: CPU = 375.606 ms, elapsed = 332.45 ms.
Peak resident memory used = 175 Mbytes.

Existing shared object for module modn_ahdl is up to date.
Installed compiled interface for modn_ahdl.
Existing shared object for module modp_ahdl is up to date.
Installed compiled interface for modp_ahdl.
Existing shared object for module cpoly_ahdl is up to date.
Installed compiled interface for cpoly_ahdl.
Existing shared object for module rpolyh_ahdl is up to date.
Installed compiled interface for rpolyh_ahdl.
Existing shared object for module bsource_19b458 is up to date.
Installed compiled interface for bsource_19b458.
Time for Elaboration: CPU = 58.948 ms, elapsed = 61.4719 ms.
Time accumulated: CPU = 434.698 ms, elapsed = 394.065 ms.
Peak resident memory used = 189 Mbytes.


Notice from spectre during hierarchy flattening.
    The value 'psf' specified for the 'checklimitdest' option will no longer be supported in future releases. Use 'spectre -h' to see other recommended values for the 'checklimitdest' option.


*****************************************************************************************
* 
* INFO: AMS_processOption = C35B4C3
* 
* INFO: Valid Modules  PIP VG5 HIRES
* 
*****************************************************************************************


Notice from spectre during hierarchy flattening.
    V8: `period' has the unusually large value of 100 s.


Time for EDB Visiting: CPU = 9.159 ms, elapsed = 9.15909 ms.
Time accumulated: CPU = 444.024 ms, elapsed = 403.39 ms.
Peak resident memory used = 192 Mbytes.

Loading /opt/tools/cadence/installs/SPECTRE241/tools.lnx86/mdl/lib/64bit/libSpectreEH_sh.so ...

Warning from spectre during initial setup.
    WARNING (SPECTRE-16460): SOAC_cvarm_vspsub:Specified subcircuit master `cvarm' was not found.
    WARNING (SPECTRE-16462): SOAC_cvarm_vspsub:Error in specification of subcircuit master. Assert is ignored.
    WARNING (SPECTRE-16460): SOAC_cvarm_vbs:Specified subcircuit master `cvarm' was not found.
    WARNING (SPECTRE-16462): SOAC_cvarm_vbs:Error in specification of subcircuit master. Assert is ignored.
    WARNING (SPECTRE-16460): SOAC_cvarm_vgb:Specified subcircuit master `cvarm' was not found.
    WARNING (SPECTRE-16462): SOAC_cvarm_vgb:Error in specification of subcircuit master. Assert is ignored.
    WARNING (SPECTRE-16460): SOAC_cvart_vspsub:Specified subcircuit master `cvart' was not found.
    WARNING (SPECTRE-16462): SOAC_cvart_vspsub:Error in specification of subcircuit master. Assert is ignored.
    WARNING (SPECTRE-16460): SOAC_cvart_vbs:Specified subcircuit master `cvart' was not found.
        Further occurrences of this warning will be suppressed.
    WARNING (SPECTRE-16462): SOAC_cvart_vbs:Error in specification of subcircuit master. Assert is ignored.
        Further occurrences of this warning will be suppressed.
Notice from spectre during topology check.
    Only one connection to the following 54 nodes:
        I0.MN6.psub!
        I0.MN5.psub!
        I0.MN4.psub!
        I0.MN3.psub!
        I0.MN2.psub!
        Further occurrences of this notice will be suppressed.
Notice from spectre during initial setup.
    Multithreading is disabled due to the size of the design being too small.


Netlist title:
        // Point Netlist Generated on: Apr 16 09:33:56 2026


Global user options:
         psfversion = 1.4.0
            vabstol = 1e-06
            iabstol = 1e-12
               temp = 27
           homotopy = 5
              limit = delta
         compatible = spice2
               gmin = 1e-12
             rforce = 1
           maxnotes = 5
           maxwarns = 5
             digits = 5
               cols = 80
             pivrel = 0.001
           sensfile = ../psf/sens.output
     checklimitdest = psf
     enable_pre_ver = yes
      ignorezerovar = yes
               save = allpub
             reltol = 0.0001
               tnom = 27
             scalem = 1
              scale = 1

Scoped user options:

Circuit inventory:
              nodes 88
            bsim3v3 35    
     bsource_19b458 2     
          capacitor 38    
         cpoly_ahdl 17    
            isource 1     
          modn_ahdl 19    
          modp_ahdl 16    
           resistor 1     
        rpolyh_ahdl 2     
            vsource 8     

Analysis and control statement inventory:
               info 7     
         montecarlo 1     
               tran 1     

Output statements:
             .probe 0     
           .measure 0     
               save 0     

Design checks inventory:
          paramtest 55    
             assert 175   


Notice from spectre during initial setup.
    APS enabled.
    1 notice suppressed.
    72 warnings suppressed.

Time for parsing: CPU = 19.063 ms, elapsed = 635.16 ms.
Time accumulated: CPU = 463.202 ms, elapsed = 1.03867 s.
Peak resident memory used = 198 Mbytes.

~~~~~~~~~~~~~~~~~~~~~~
Pre-Simulation Summary
~~~~~~~~~~~~~~~~~~~~~~
   -   (APS) Multi-threading. The recommended number of threads is 1, consider adding +mt=1 on command line.
~~~~~~~~~~~~~~~~~~~~~~

**************************************************
Monte Carlo Analysis `mc1': iteration = (1 -> 100)
**************************************************
Important parameter values:
    seed = 12345
    sampling = lds
    variations = all
    firstrun = 1
    numruns = 100
    nullmfactorcorrelation = no
    donominal = yes
    method = standard

**** Performing nominal run for `mc1'

Notice from spectre during transient analysis `tran', during Monte Carlo analysis `mc1'.
    No checklimit analysis defined for asserts. A default checklimit analysis 'SpectreChecklimitAnal' has been created with all asserts enabled.


***********************************************
Transient Analysis `tran': time = (0 s -> 50 s)
***********************************************

Warning from spectre during check, during IC analysis, during transient analysis `tran', during Monte Carlo analysis `mc1'.
    WARNING (CMI-2943): Parameter checks have been ignored because the valid value for parameter 'trise' could not be found in 'C1'.
    WARNING (CMI-2943): Parameter checks have been ignored because the valid value for parameter 'trise' could not be found in 'I0.R2.CM'.
    WARNING (CMI-2943): Parameter checks have been ignored because the valid value for parameter 'trise' could not be found in 'I0.R2.CS1'.
    WARNING (CMI-2943): Parameter checks have been ignored because the valid value for parameter 'trise' could not be found in 'I0.R2.CS0'.
    WARNING (CMI-2943): Parameter checks have been ignored because the valid value for parameter 'trise' could not be found in 'I0.C3.C1'.
        Further occurrences of this warning will be suppressed.

Convergence achieved in 12 iterations.
DC simulation time: CPU = 2.998 ms, elapsed = 2.99907 ms.

Opening the PSF file ../psf/nom/tran.tran.tran ...
Important parameter values:
    start = 0 s
    outputstart = 0 s
    stop = 50 s
    step = 50 ms
    maxstep = 500 ms
    ic = all
    useprevic = no
    skipdc = no
    reltol = 10e-06
    abstol(V) = 1 uV
    abstol(I) = 1 pA
    temp = 27 C
    tnom = 27 C
    tempeffects = all
    errpreset = conservative
    method = gear2only
    lteratio = 10
    relref = alllocal
    cmin = 0 F
    gmin = 1 pS
    rabsshort = 1 mOhm


Notice from spectre during transient analysis `tran', during Monte Carlo analysis `mc1'.
    Multithreading is disabled due to the size of the design being too small.


Output and IC/nodeset summary:
                 save   8       (current)
                 save   87      (voltage)

    tran: time = 1.295 s     (2.59 %), step = 88.81 ms     (178 m%)
    tran: time = 3.846 s     (7.69 %), step = 334.8 ms     (670 m%)
    tran: time = 6.528 s     (13.1 %), step = 500 ms          (1 %)
    tran: time = 9.028 s     (18.1 %), step = 500 ms          (1 %)
    tran: time = 11.53 s     (23.1 %), step = 500 ms          (1 %)
    tran: time = 14.03 s     (28.1 %), step = 500 ms          (1 %)
    tran: time = 16.53 s     (33.1 %), step = 500 ms          (1 %)
    tran: time = 19.03 s     (38.1 %), step = 500 ms          (1 %)
    tran: time = 21.53 s     (43.1 %), step = 500 ms          (1 %)
    tran: time = 24.03 s     (48.1 %), step = 500 ms          (1 %)
    tran: time = 26.53 s     (53.1 %), step = 500 ms          (1 %)
    tran: time = 29.03 s     (58.1 %), step = 500 ms          (1 %)
    tran: time = 31.53 s     (63.1 %), step = 500 ms          (1 %)
    tran: time = 34.03 s     (68.1 %), step = 500 ms          (1 %)
    tran: time = 36.53 s     (73.1 %), step = 500 ms          (1 %)
    tran: time = 39.03 s     (78.1 %), step = 500 ms          (1 %)
    tran: time = 41.53 s     (83.1 %), step = 500 ms          (1 %)
    tran: time = 44.03 s     (88.1 %), step = 500 ms          (1 %)
    tran: time = 46.53 s     (93.1 %), step = 500 ms          (1 %)
    tran: time = 49.03 s     (98.1 %), step = 500 ms          (1 %)
Number of accepted tran steps =             733

Maximum value achieved for any signal of each quantity: 
V: V(S<0>) = 3.3 V
I: I(V8:p) = 6.457 uA

~~~~~~~~~~~~~~~~~~~~~~~~~~~~~~~~~
Post-Transient Simulation Summary
~~~~~~~~~~~~~~~~~~~~~~~~~~~~~~~~~
   -   To further speed up simulation, consider
          add ++aps on command line
   -   Non-default settings that could significantly slow down simulation
          errpreset = conservative, default moderate
          reltol = 10e-06, default 100e-06 (conservative)
~~~~~~~~~~~~~~~~~~~~~~~~~~~~~~~~~


During simulation, the CPU load for active processors is :
         0 (100.0 %)     1 (11.5 %)      2 (35.7 %)      3 (16.4 %)
         4 (5.7 %)       6 (2.8 %)       7 (13.2 %)      8 (2.8 %)
         9 (2.1 %)      10 (2.1 %)      11 (100.0 %)    12 (19.3 %)
        13 (5.8 %)      14 (2.1 %)      15 (5.6 %)      16 (12.1 %)
        17 (11.6 %)     18 (13.5 %)     19 (13.5 %)     20 (4.9 %)
        21 (7.8 %)      22 (51.7 %)     23 (8.5 %)      24 (81.0 %)
        25 (100.0 %)    26 (11.6 %)     27 (10.7 %)     28 (8.6 %)
        29 (37.8 %)     30 (23.2 %)     31 (15.6 %)     32 (13.6 %)
        33 (14.3 %)     34 (5.6 %)      35 (5.8 %)      36 (18.8 %)
        37 (11.3 %)     38 (14.0 %)     39 (7.0 %)      40 (100.0 %)
        41 (13.2 %)     42 (18.1 %)     43 (2.9 %)      44 (53.8 %)
        45 (8.5 %)      46 (2.9 %)      47 (41.7 %)     
        Total: 1068.7%
Initial condition solution time: CPU = 3.051 ms, elapsed = 3.05295 ms.
Intrinsic tran analysis time:    CPU = 444.325 ms, elapsed = 445.764 ms.
Total time required for tran analysis `tran': CPU = 530.24 ms, elapsed = 535.978 ms, util. = 98.9%.
Time accumulated: CPU = 1.01963 s, elapsed = 1.60211 s.
Peak resident memory used = 209 Mbytes.


Notice from spectre during transient analysis `tran', during Monte Carlo analysis `mc1'.
    34 warnings suppressed.

finalTimeOP: writing operating point information to rawfile.

Opening the PSF file ../psf/nom/finalTimeOP.info ...
modelParameter: writing model parameter values to rawfile.

Opening the PSF file ../psf/nom/modelParameter.info ...
element: writing instance parameter values to rawfile.

Opening the PSF file ../psf/nom/element.info ...
outputParameter: writing output parameter values to rawfile.

Opening the PSF file ../psf/nom/outputParameter.info ...
designParamVals: writing netlist parameters to rawfile.

Opening the PSFASCII file ../psf/nom/designParamVals.info ...
primitives: writing primitives to rawfile.

Opening the PSFASCII file ../psf/nom/primitives.info.primitives ...
subckts: writing subcircuits to rawfile.

Opening the PSFASCII file ../psf/nom/subckts.info.subckts ...
Opening iteration number and data-directory mapping file:  /home/davidevi/Desktop/myproject/Sim/VGA/VGA_1_wakeup_tb/adexl/results/data/MonteCarlo.1/1/wakeup/groupRunDataDir/netlist/../psf/mc1.mapping

Statistical parameters:
    Defined process parameters: 629
    Defined mismatch parameters (subckt based): 86
    Non-referenced mismatch parameters: 84
    Number of random variables: 648
    Gaussian truncation for process parameters: 4.00 sigma
    Gaussian truncation for mismatch parameters: 4.00 sigma


Opening the PSF file ../psf/mc1_tran.montecarlo ...

Opening the PSF file ../psf/mc1_finalTimeOP.montecarlo ...

Opening the PSF file ../psf/mc1_modelParameter.montecarlo ...

Opening the PSF file ../psf/mc1_element.montecarlo ...

Opening the PSF file ../psf/mc1_outputParameter.montecarlo ...

Opening the PSF file ../psf/mc1_designParamVals.montecarlo ...

Opening the PSF file ../psf/mc1_primitives.montecarlo ...

Opening the PSF file ../psf/mc1_subckts.montecarlo ...

**** Performing monte carlo loop for `mc1'

1   0.00% 

*****************************************************************************************
* 
* INFO: AMS_processOption = C35B4C3
* 
* INFO: Valid Modules  PIP VG5 HIRES
* 
*****************************************************************************************


Notice from spectre at iteration = 1 during Monte Carlo analysis `mc1'.
    V8: `period' has the unusually large value of 100 s.


***********************************************
Transient Analysis `tran': time = (0 s -> 50 s)
***********************************************

Opening the PSF file ../psf/mc1_separate/001/tran.tran.tran ...

Warning from spectre at iteration = 1 during check, during IC analysis, during transient analysis `tran', during Monte Carlo analysis `mc1'.
    WARNING (CMI-2943): Parameter checks have been ignored because the valid value for parameter 'trise' could not be found in 'C1'.
    WARNING (CMI-2943): Parameter checks have been ignored because the valid value for parameter 'trise' could not be found in 'I0.R2.CM'.
    WARNING (CMI-2943): Parameter checks have been ignored because the valid value for parameter 'trise' could not be found in 'I0.R2.CS1'.
    WARNING (CMI-2943): Parameter checks have been ignored because the valid value for parameter 'trise' could not be found in 'I0.R2.CS0'.
    WARNING (CMI-2943): Parameter checks have been ignored because the valid value for parameter 'trise' could not be found in 'I0.C3.C1'.
        Further occurrences of this warning will be suppressed.

Convergence achieved in 12 iterations.
DC simulation time: CPU = 2.675 ms, elapsed = 2.67577 ms.
Important parameter values:
    start = 0 s
    outputstart = 0 s
    stop = 50 s
    step = 50 ms
    maxstep = 500 ms
    ic = all
    useprevic = no
    skipdc = no
    reltol = 10e-06
    abstol(V) = 1 uV
    abstol(I) = 1 pA
    temp = 27 C
    tnom = 27 C
    tempeffects = all
    errpreset = conservative
    method = gear2only
    lteratio = 10
    relref = alllocal
    cmin = 0 F
    gmin = 1 pS
    rabsshort = 1 mOhm


Notice from spectre at iteration = 1 during transient analysis `tran', during Monte Carlo analysis `mc1'.
    Multithreading is disabled due to the size of the design being too small.


Output and IC/nodeset summary:
                 save   8       (current)
                 save   87      (voltage)

    tran: time = 1.295 s     (2.59 %), step = 88.81 ms     (178 m%)
    tran: time = 3.846 s     (7.69 %), step = 334.8 ms     (670 m%)
    tran: time = 6.528 s     (13.1 %), step = 500 ms          (1 %)
    tran: time = 9.028 s     (18.1 %), step = 500 ms          (1 %)
    tran: time = 11.53 s     (23.1 %), step = 500 ms          (1 %)
    tran: time = 14.03 s     (28.1 %), step = 500 ms          (1 %)
    tran: time = 16.53 s     (33.1 %), step = 500 ms          (1 %)
    tran: time = 19.03 s     (38.1 %), step = 500 ms          (1 %)
    tran: time = 21.53 s     (43.1 %), step = 500 ms          (1 %)
    tran: time = 24.03 s     (48.1 %), step = 500 ms          (1 %)
    tran: time = 26.53 s     (53.1 %), step = 500 ms          (1 %)
    tran: time = 29.03 s     (58.1 %), step = 500 ms          (1 %)
    tran: time = 31.53 s     (63.1 %), step = 500 ms          (1 %)
    tran: time = 34.03 s     (68.1 %), step = 500 ms          (1 %)
    tran: time = 36.53 s     (73.1 %), step = 500 ms          (1 %)
    tran: time = 39.03 s     (78.1 %), step = 500 ms          (1 %)
    tran: time = 41.53 s     (83.1 %), step = 500 ms          (1 %)
    tran: time = 44.03 s     (88.1 %), step = 500 ms          (1 %)
    tran: time = 46.53 s     (93.1 %), step = 500 ms          (1 %)
    tran: time = 49.03 s     (98.1 %), step = 500 ms          (1 %)
Number of accepted tran steps =             733

Maximum value achieved for any signal of each quantity: 
V: V(S<0>) = 3.3 V
I: I(V8:p) = 6.457 uA

~~~~~~~~~~~~~~~~~~~~~~~~~~~~~~~~~
Post-Transient Simulation Summary
~~~~~~~~~~~~~~~~~~~~~~~~~~~~~~~~~
   -   To further speed up simulation, consider
          add ++aps on command line
   -   Non-default settings that could significantly slow down simulation
          errpreset = conservative, default moderate
          reltol = 10e-06, default 100e-06 (conservative)
~~~~~~~~~~~~~~~~~~~~~~~~~~~~~~~~~


During simulation, the CPU load for active processors is :
         0 (100.0 %)     1 (10.3 %)      2 (26.0 %)      3 (13.8 %)
         4 (14.7 %)      5 (2.4 %)       6 (3.9 %)       7 (15.5 %)
         8 (2.5 %)       9 (2.9 %)      10 (6.8 %)      11 (100.0 %)
        12 (18.4 %)     13 (26.1 %)     14 (3.0 %)      15 (6.9 %)
        16 (28.9 %)     17 (13.5 %)     18 (12.7 %)     19 (15.7 %)
        20 (9.2 %)      21 (10.0 %)     22 (37.4 %)     23 (8.8 %)
        24 (58.3 %)     25 (100.0 %)    26 (12.0 %)     27 (8.9 %)
        28 (6.5 %)      29 (27.1 %)     30 (18.6 %)     31 (11.8 %)
        32 (10.3 %)     33 (10.9 %)     34 (21.8 %)     35 (33.7 %)
        36 (17.4 %)     37 (11.3 %)     38 (13.2 %)     39 (6.8 %)
        40 (100.0 %)    41 (10.1 %)     42 (15.2 %)     43 (3.0 %)
        44 (68.1 %)     45 (8.3 %)      46 (3.0 %)      47 (30.0 %)
        Total: 1095.7%
Initial condition solution time: CPU = 2.722 ms, elapsed = 2.72298 ms.
Intrinsic tran analysis time:    CPU = 436.928 ms, elapsed = 438.641 ms.
Total time required for tran analysis `tran': CPU = 442.508 ms, elapsed = 444.744 ms, util. = 99.5%.
Time accumulated: CPU = 1.5369 s, elapsed = 2.13704 s.
Peak resident memory used = 213 Mbytes.


Notice from spectre during transient analysis `tran', during Monte Carlo analysis `mc1'.
    34 warnings suppressed.

finalTimeOP: writing operating point information to rawfile.

Opening the PSF file ../psf/mc1_separate/001/finalTimeOP.info ...
modelParameter: writing model parameter values to rawfile.

Opening the PSF file ../psf/mc1_separate/001/modelParameter.info ...
element: writing instance parameter values to rawfile.

Opening the PSF file ../psf/mc1_separate/001/element.info ...
outputParameter: writing output parameter values to rawfile.

Opening the PSF file ../psf/mc1_separate/001/outputParameter.info ...
designParamVals: writing netlist parameters to rawfile.

Opening the PSFASCII file ../psf/mc1_separate/001/designParamVals.info ...
primitives: writing primitives to rawfile.

Opening the PSFASCII file ../psf/mc1_separate/001/primitives.info.primitives ...
subckts: writing subcircuits to rawfile.

Opening the PSFASCII file ../psf/mc1_separate/001/subckts.info.subckts ...
2   1.01% 

*****************************************************************************************
* 
* INFO: AMS_processOption = C35B4C3
* 
* INFO: Valid Modules  PIP VG5 HIRES
* 
*****************************************************************************************


Notice from spectre during Monte Carlo analysis `mc1'.
    V8: `period' has the unusually large value of 100 s.


***********************************************
Transient Analysis `tran': time = (0 s -> 50 s)
***********************************************

Opening the PSF file ../psf/mc1_separate/002/tran.tran.tran ...

Warning from spectre during check, during IC analysis, during transient analysis `tran', during Monte Carlo analysis `mc1'.
    WARNING (CMI-2943): Parameter checks have been ignored because the valid value for parameter 'trise' could not be found in 'C1'.
    WARNING (CMI-2943): Parameter checks have been ignored because the valid value for parameter 'trise' could not be found in 'I0.R2.CM'.
    WARNING (CMI-2943): Parameter checks have been ignored because the valid value for parameter 'trise' could not be found in 'I0.R2.CS1'.
    WARNING (CMI-2943): Parameter checks have been ignored because the valid value for parameter 'trise' could not be found in 'I0.R2.CS0'.
    WARNING (CMI-2943): Parameter checks have been ignored because the valid value for parameter 'trise' could not be found in 'I0.C3.C1'.
        Further occurrences of this warning will be suppressed.

Convergence achieved in 12 iterations.
DC simulation time: CPU = 2.557 ms, elapsed = 2.55799 ms.
Important parameter values:
    start = 0 s
    outputstart = 0 s
    stop = 50 s
    step = 50 ms
    maxstep = 500 ms
    ic = all
    useprevic = no
    skipdc = no
    reltol = 10e-06
    abstol(V) = 1 uV
    abstol(I) = 1 pA
    temp = 27 C
    tnom = 27 C
    tempeffects = all
    errpreset = conservative
    method = gear2only
    lteratio = 10
    relref = alllocal
    cmin = 0 F
    gmin = 1 pS
    rabsshort = 1 mOhm


Notice from spectre during transient analysis `tran', during Monte Carlo analysis `mc1'.
    Multithreading is disabled due to the size of the design being too small.


Output and IC/nodeset summary:
                 save   8       (current)
                 save   87      (voltage)

    tran: time = 1.295 s     (2.59 %), step = 88.81 ms     (178 m%)
    tran: time = 3.846 s     (7.69 %), step = 334.8 ms     (670 m%)
    tran: time = 6.528 s     (13.1 %), step = 500 ms          (1 %)
    tran: time = 9.028 s     (18.1 %), step = 500 ms          (1 %)
    tran: time = 11.53 s     (23.1 %), step = 500 ms          (1 %)
    tran: time = 14.03 s     (28.1 %), step = 500 ms          (1 %)
    tran: time = 16.53 s     (33.1 %), step = 500 ms          (1 %)
    tran: time = 19.03 s     (38.1 %), step = 500 ms          (1 %)
    tran: time = 21.53 s     (43.1 %), step = 500 ms          (1 %)
    tran: time = 24.03 s     (48.1 %), step = 500 ms          (1 %)
    tran: time = 26.53 s     (53.1 %), step = 500 ms          (1 %)
    tran: time = 29.03 s     (58.1 %), step = 500 ms          (1 %)
    tran: time = 31.53 s     (63.1 %), step = 500 ms          (1 %)
    tran: time = 34.03 s     (68.1 %), step = 500 ms          (1 %)
    tran: time = 36.53 s     (73.1 %), step = 500 ms          (1 %)
    tran: time = 39.03 s     (78.1 %), step = 500 ms          (1 %)
    tran: time = 41.53 s     (83.1 %), step = 500 ms          (1 %)
    tran: time = 44.03 s     (88.1 %), step = 500 ms          (1 %)
    tran: time = 46.53 s     (93.1 %), step = 500 ms          (1 %)
    tran: time = 49.03 s     (98.1 %), step = 500 ms          (1 %)
Number of accepted tran steps =             733

Maximum value achieved for any signal of each quantity: 
V: V(S<0>) = 3.3 V
I: I(V8:p) = 6.457 uA

~~~~~~~~~~~~~~~~~~~~~~~~~~~~~~~~~
Post-Transient Simulation Summary
~~~~~~~~~~~~~~~~~~~~~~~~~~~~~~~~~
   -   To further speed up simulation, consider
          add ++aps on command line
   -   Non-default settings that could significantly slow down simulation
          errpreset = conservative, default moderate
          reltol = 10e-06, default 100e-06 (conservative)
~~~~~~~~~~~~~~~~~~~~~~~~~~~~~~~~~


During simulation, the CPU load for active processors is :
         0 (100.0 %)     1 (8.7 %)       2 (20.9 %)      3 (11.5 %)
         4 (12.3 %)      5 (2.0 %)       6 (3.5 %)       7 (12.8 %)
         8 (2.0 %)       9 (2.3 %)      10 (25.1 %)     11 (100.0 %)
        12 (15.1 %)     13 (39.7 %)     14 (2.8 %)      15 (5.6 %)
        16 (43.1 %)     17 (11.6 %)     18 (11.4 %)     19 (18.1 %)
        20 (8.6 %)      21 (8.8 %)      22 (30.6 %)     23 (7.1 %)
        24 (65.4 %)     25 (100.0 %)    26 (10.4 %)     27 (7.1 %)
        28 (6.0 %)      29 (22.8 %)     30 (19.3 %)     31 (10.2 %)
        32 (8.7 %)      33 (9.9 %)      34 (36.6 %)     35 (28.2 %)
        36 (16.3 %)     37 (9.5 %)      38 (13.3 %)     39 (5.5 %)
        40 (100.0 %)    41 (8.2 %)      42 (12.2 %)     43 (2.4 %)
        44 (74.3 %)     45 (6.7 %)      46 (3.2 %)      47 (24.7 %)
        Total: 1104.5%
Initial condition solution time: CPU = 2.622 ms, elapsed = 2.62403 ms.
Intrinsic tran analysis time:    CPU = 449.43 ms, elapsed = 450.975 ms.
Total time required for tran analysis `tran': CPU = 454.569 ms, elapsed = 456.783 ms, util. = 99.5%.
Time accumulated: CPU = 2.02846 s, elapsed = 2.64318 s.
Peak resident memory used = 213 Mbytes.


Notice from spectre during transient analysis `tran', during Monte Carlo analysis `mc1'.
    34 warnings suppressed.

finalTimeOP: writing operating point information to rawfile.

Opening the PSF file ../psf/mc1_separate/002/finalTimeOP.info ...
modelParameter: writing model parameter values to rawfile.

Opening the PSF file ../psf/mc1_separate/002/modelParameter.info ...
element: writing instance parameter values to rawfile.

Opening the PSF file ../psf/mc1_separate/002/element.info ...
outputParameter: writing output parameter values to rawfile.

Opening the PSF file ../psf/mc1_separate/002/outputParameter.info ...
designParamVals: writing netlist parameters to rawfile.

Opening the PSFASCII file ../psf/mc1_separate/002/designParamVals.info ...
primitives: writing primitives to rawfile.

Opening the PSFASCII file ../psf/mc1_separate/002/primitives.info.primitives ...
subckts: writing subcircuits to rawfile.

Opening the PSFASCII file ../psf/mc1_separate/002/subckts.info.subckts ...
3   2.02% 

*****************************************************************************************
* 
* INFO: AMS_processOption = C35B4C3
* 
* INFO: Valid Modules  PIP VG5 HIRES
* 
*****************************************************************************************


Notice from spectre during Monte Carlo analysis `mc1'.
    V8: `period' has the unusually large value of 100 s.


***********************************************
Transient Analysis `tran': time = (0 s -> 50 s)
***********************************************

Opening the PSF file ../psf/mc1_separate/003/tran.tran.tran ...

Warning from spectre during check, during IC analysis, during transient analysis `tran', during Monte Carlo analysis `mc1'.
    WARNING (CMI-2943): Parameter checks have been ignored because the valid value for parameter 'trise' could not be found in 'C1'.
    WARNING (CMI-2943): Parameter checks have been ignored because the valid value for parameter 'trise' could not be found in 'I0.R2.CM'.
    WARNING (CMI-2943): Parameter checks have been ignored because the valid value for parameter 'trise' could not be found in 'I0.R2.CS1'.
    WARNING (CMI-2943): Parameter checks have been ignored because the valid value for parameter 'trise' could not be found in 'I0.R2.CS0'.
    WARNING (CMI-2943): Parameter checks have been ignored because the valid value for parameter 'trise' could not be found in 'I0.C3.C1'.
        Further occurrences of this warning will be suppressed.

Convergence achieved in 12 iterations.
DC simulation time: CPU = 2.521 ms, elapsed = 2.52199 ms.
Important parameter values:
    start = 0 s
    outputstart = 0 s
    stop = 50 s
    step = 50 ms
    maxstep = 500 ms
    ic = all
    useprevic = no
    skipdc = no
    reltol = 10e-06
    abstol(V) = 1 uV
    abstol(I) = 1 pA
    temp = 27 C
    tnom = 27 C
    tempeffects = all
    errpreset = conservative
    method = gear2only
    lteratio = 10
    relref = alllocal
    cmin = 0 F
    gmin = 1 pS
    rabsshort = 1 mOhm


Notice from spectre during transient analysis `tran', during Monte Carlo analysis `mc1'.
    Multithreading is disabled due to the size of the design being too small.


Output and IC/nodeset summary:
                 save   8       (current)
                 save   87      (voltage)

    tran: time = 1.295 s     (2.59 %), step = 88.81 ms     (178 m%)
    tran: time = 3.846 s     (7.69 %), step = 334.8 ms     (670 m%)
    tran: time = 6.528 s     (13.1 %), step = 500 ms          (1 %)
    tran: time = 9.028 s     (18.1 %), step = 500 ms          (1 %)
    tran: time = 11.53 s     (23.1 %), step = 500 ms          (1 %)
    tran: time = 14.03 s     (28.1 %), step = 500 ms          (1 %)
    tran: time = 16.53 s     (33.1 %), step = 500 ms          (1 %)
    tran: time = 19.03 s     (38.1 %), step = 500 ms          (1 %)
    tran: time = 21.53 s     (43.1 %), step = 500 ms          (1 %)
    tran: time = 24.03 s     (48.1 %), step = 500 ms          (1 %)
    tran: time = 26.53 s     (53.1 %), step = 500 ms          (1 %)
    tran: time = 29.03 s     (58.1 %), step = 500 ms          (1 %)
    tran: time = 31.53 s     (63.1 %), step = 500 ms          (1 %)
    tran: time = 34.03 s     (68.1 %), step = 500 ms          (1 %)
    tran: time = 36.53 s     (73.1 %), step = 500 ms          (1 %)
    tran: time = 39.03 s     (78.1 %), step = 500 ms          (1 %)
    tran: time = 41.53 s     (83.1 %), step = 500 ms          (1 %)
    tran: time = 44.03 s     (88.1 %), step = 500 ms          (1 %)
    tran: time = 46.53 s     (93.1 %), step = 500 ms          (1 %)
    tran: time = 49.03 s     (98.1 %), step = 500 ms          (1 %)
Number of accepted tran steps =             733

Maximum value achieved for any signal of each quantity: 
V: V(S<0>) = 3.3 V
I: I(V8:p) = 6.457 uA

~~~~~~~~~~~~~~~~~~~~~~~~~~~~~~~~~
Post-Transient Simulation Summary
~~~~~~~~~~~~~~~~~~~~~~~~~~~~~~~~~
   -   To further speed up simulation, consider
          add ++aps on command line
   -   Non-default settings that could significantly slow down simulation
          errpreset = conservative, default moderate
          reltol = 10e-06, default 100e-06 (conservative)
~~~~~~~~~~~~~~~~~~~~~~~~~~~~~~~~~


During simulation, the CPU load for active processors is :
         0 (100.0 %)     1 (12.9 %)      2 (17.9 %)      3 (12.9 %)
         4 (10.9 %)      5 (2.0 %)       6 (3.6 %)       7 (13.9 %)
         8 (2.3 %)       9 (2.3 %)      10 (28.0 %)     11 (100.0 %)
        12 (13.3 %)     13 (34.0 %)     14 (15.6 %)     15 (5.9 %)
        16 (40.5 %)     17 (11.0 %)     18 (24.3 %)     19 (18.0 %)
        20 (10.1 %)     21 (7.6 %)      22 (26.6 %)     23 (7.9 %)
        24 (70.3 %)     25 (92.2 %)     26 (9.7 %)      27 (7.9 %)
        28 (5.6 %)      29 (20.4 %)     30 (19.5 %)     31 (9.6 %)
        32 (7.9 %)      33 (24.1 %)     34 (30.9 %)     35 (24.0 %)
        36 (16.3 %)     37 (21.4 %)     38 (11.1 %)     39 (4.9 %)
        40 (100.0 %)    41 (6.9 %)      42 (11.2 %)     43 (2.3 %)
        44 (78.6 %)     45 (6.2 %)      46 (3.0 %)      47 (20.9 %)
        Total: 1126.5%
Initial condition solution time: CPU = 2.573 ms, elapsed = 2.57611 ms.
Intrinsic tran analysis time:    CPU = 450.49 ms, elapsed = 452.048 ms.
Total time required for tran analysis `tran': CPU = 455.962 ms, elapsed = 458.346 ms, util. = 99.5%.
Time accumulated: CPU = 2.52267 s, elapsed = 3.15146 s.
Peak resident memory used = 213 Mbytes.


Notice from spectre during transient analysis `tran', during Monte Carlo analysis `mc1'.
    34 warnings suppressed.

finalTimeOP: writing operating point information to rawfile.

Opening the PSF file ../psf/mc1_separate/003/finalTimeOP.info ...
modelParameter: writing model parameter values to rawfile.

Opening the PSF file ../psf/mc1_separate/003/modelParameter.info ...
element: writing instance parameter values to rawfile.

Opening the PSF file ../psf/mc1_separate/003/element.info ...
outputParameter: writing output parameter values to rawfile.

Opening the PSF file ../psf/mc1_separate/003/outputParameter.info ...
designParamVals: writing netlist parameters to rawfile.

Opening the PSFASCII file ../psf/mc1_separate/003/designParamVals.info ...
primitives: writing primitives to rawfile.

Opening the PSFASCII file ../psf/mc1_separate/003/primitives.info.primitives ...
subckts: writing subcircuits to rawfile.

Opening the PSFASCII file ../psf/mc1_separate/003/subckts.info.subckts ...
4   3.03% 

*****************************************************************************************
* 
* INFO: AMS_processOption = C35B4C3
* 
* INFO: Valid Modules  PIP VG5 HIRES
* 
*****************************************************************************************


Notice from spectre during Monte Carlo analysis `mc1'.
    V8: `period' has the unusually large value of 100 s.


***********************************************
Transient Analysis `tran': time = (0 s -> 50 s)
***********************************************

Opening the PSF file ../psf/mc1_separate/004/tran.tran.tran ...

Warning from spectre during check, during IC analysis, during transient analysis `tran', during Monte Carlo analysis `mc1'.
    WARNING (CMI-2943): Parameter checks have been ignored because the valid value for parameter 'trise' could not be found in 'C1'.
    WARNING (CMI-2943): Parameter checks have been ignored because the valid value for parameter 'trise' could not be found in 'I0.R2.CM'.
    WARNING (CMI-2943): Parameter checks have been ignored because the valid value for parameter 'trise' could not be found in 'I0.R2.CS1'.
    WARNING (CMI-2943): Parameter checks have been ignored because the valid value for parameter 'trise' could not be found in 'I0.R2.CS0'.
    WARNING (CMI-2943): Parameter checks have been ignored because the valid value for parameter 'trise' could not be found in 'I0.C3.C1'.
        Further occurrences of this warning will be suppressed.

Convergence achieved in 12 iterations.
DC simulation time: CPU = 2.623 ms, elapsed = 2.63715 ms.
Important parameter values:
    start = 0 s
    outputstart = 0 s
    stop = 50 s
    step = 50 ms
    maxstep = 500 ms
    ic = all
    useprevic = no
    skipdc = no
    reltol = 10e-06
    abstol(V) = 1 uV
    abstol(I) = 1 pA
    temp = 27 C
    tnom = 27 C
    tempeffects = all
    errpreset = conservative
    method = gear2only
    lteratio = 10
    relref = alllocal
    cmin = 0 F
    gmin = 1 pS
    rabsshort = 1 mOhm


Notice from spectre during transient analysis `tran', during Monte Carlo analysis `mc1'.
    Multithreading is disabled due to the size of the design being too small.


Output and IC/nodeset summary:
                 save   8       (current)
                 save   87      (voltage)

    tran: time = 1.295 s     (2.59 %), step = 88.81 ms     (178 m%)
    tran: time = 3.846 s     (7.69 %), step = 334.8 ms     (670 m%)
    tran: time = 6.528 s     (13.1 %), step = 500 ms          (1 %)
    tran: time = 9.028 s     (18.1 %), step = 500 ms          (1 %)
    tran: time = 11.53 s     (23.1 %), step = 500 ms          (1 %)
    tran: time = 14.03 s     (28.1 %), step = 500 ms          (1 %)
    tran: time = 16.53 s     (33.1 %), step = 500 ms          (1 %)
    tran: time = 19.03 s     (38.1 %), step = 500 ms          (1 %)
    tran: time = 21.53 s     (43.1 %), step = 500 ms          (1 %)
    tran: time = 24.03 s     (48.1 %), step = 500 ms          (1 %)
    tran: time = 26.53 s     (53.1 %), step = 500 ms          (1 %)
    tran: time = 29.03 s     (58.1 %), step = 500 ms          (1 %)
    tran: time = 31.53 s     (63.1 %), step = 500 ms          (1 %)
    tran: time = 34.03 s     (68.1 %), step = 500 ms          (1 %)
    tran: time = 36.53 s     (73.1 %), step = 500 ms          (1 %)
    tran: time = 39.03 s     (78.1 %), step = 500 ms          (1 %)
    tran: time = 41.53 s     (83.1 %), step = 500 ms          (1 %)
    tran: time = 44.03 s     (88.1 %), step = 500 ms          (1 %)
    tran: time = 46.53 s     (93.1 %), step = 500 ms          (1 %)
    tran: time = 49.03 s     (98.1 %), step = 500 ms          (1 %)
Number of accepted tran steps =             733

Maximum value achieved for any signal of each quantity: 
V: V(S<0>) = 3.3 V
I: I(V8:p) = 6.457 uA

~~~~~~~~~~~~~~~~~~~~~~~~~~~~~~~~~
Post-Transient Simulation Summary
~~~~~~~~~~~~~~~~~~~~~~~~~~~~~~~~~
   -   To further speed up simulation, consider
          add ++aps on command line
   -   Non-default settings that could significantly slow down simulation
          errpreset = conservative, default moderate
          reltol = 10e-06, default 100e-06 (conservative)
~~~~~~~~~~~~~~~~~~~~~~~~~~~~~~~~~


During simulation, the CPU load for active processors is :
         0 (100.0 %)     1 (21.0 %)      2 (17.8 %)      3 (11.1 %)
         4 (9.4 %)       5 (2.0 %)       6 (3.4 %)       7 (12.0 %)
         8 (2.3 %)       9 (2.2 %)      10 (24.1 %)     11 (100.0 %)
        12 (15.7 %)     13 (30.0 %)     14 (16.8 %)     15 (5.9 %)
        16 (43.9 %)     17 (18.9 %)     18 (23.2 %)     19 (16.1 %)
        20 (11.8 %)     21 (7.4 %)      22 (23.7 %)     23 (8.2 %)
        24 (73.9 %)     25 (81.3 %)     26 (8.9 %)      27 (8.5 %)
        28 (7.4 %)      29 (18.1 %)     30 (19.8 %)     31 (9.1 %)
        32 (7.6 %)      33 (34.8 %)     34 (27.1 %)     35 (21.4 %)
        36 (15.4 %)     37 (24.1 %)     38 (10.4 %)     39 (4.5 %)
        40 (100.0 %)    41 (6.2 %)      42 (9.9 %)      43 (12.8 %)
        44 (71.8 %)     45 (5.9 %)      46 (3.1 %)      47 (29.3 %)
        Total: 1138.2%
Initial condition solution time: CPU = 2.681 ms, elapsed = 2.69413 ms.
Intrinsic tran analysis time:    CPU = 452.766 ms, elapsed = 454.229 ms.
Total time required for tran analysis `tran': CPU = 458.017 ms, elapsed = 460.198 ms, util. = 99.5%.
Time accumulated: CPU = 3.01796 s, elapsed = 3.66039 s.
Peak resident memory used = 213 Mbytes.


Notice from spectre during transient analysis `tran', during Monte Carlo analysis `mc1'.
    34 warnings suppressed.

finalTimeOP: writing operating point information to rawfile.

Opening the PSF file ../psf/mc1_separate/004/finalTimeOP.info ...
modelParameter: writing model parameter values to rawfile.

Opening the PSF file ../psf/mc1_separate/004/modelParameter.info ...
element: writing instance parameter values to rawfile.

Opening the PSF file ../psf/mc1_separate/004/element.info ...
outputParameter: writing output parameter values to rawfile.

Opening the PSF file ../psf/mc1_separate/004/outputParameter.info ...
designParamVals: writing netlist parameters to rawfile.

Opening the PSFASCII file ../psf/mc1_separate/004/designParamVals.info ...
primitives: writing primitives to rawfile.

Opening the PSFASCII file ../psf/mc1_separate/004/primitives.info.primitives ...
subckts: writing subcircuits to rawfile.

Opening the PSFASCII file ../psf/mc1_separate/004/subckts.info.subckts ...
    mc1: iteration = 4           (3.03 %), step = 1            (1.01 %)
5   4.04% 

*****************************************************************************************
* 
* INFO: AMS_processOption = C35B4C3
* 
* INFO: Valid Modules  PIP VG5 HIRES
* 
*****************************************************************************************


Notice from spectre during Monte Carlo analysis `mc1'.
    V8: `period' has the unusually large value of 100 s.


***********************************************
Transient Analysis `tran': time = (0 s -> 50 s)
***********************************************

Opening the PSF file ../psf/mc1_separate/005/tran.tran.tran ...

Warning from spectre during check, during IC analysis, during transient analysis `tran', during Monte Carlo analysis `mc1'.
    WARNING (CMI-2943): Parameter checks have been ignored because the valid value for parameter 'trise' could not be found in 'C1'.
    WARNING (CMI-2943): Parameter checks have been ignored because the valid value for parameter 'trise' could not be found in 'I0.R2.CM'.
    WARNING (CMI-2943): Parameter checks have been ignored because the valid value for parameter 'trise' could not be found in 'I0.R2.CS1'.
    WARNING (CMI-2943): Parameter checks have been ignored because the valid value for parameter 'trise' could not be found in 'I0.R2.CS0'.
    WARNING (CMI-2943): Parameter checks have been ignored because the valid value for parameter 'trise' could not be found in 'I0.C3.C1'.
        Further occurrences of this warning will be suppressed.

Convergence achieved in 12 iterations.
DC simulation time: CPU = 2.678 ms, elapsed = 2.68006 ms.
Important parameter values:
    start = 0 s
    outputstart = 0 s
    stop = 50 s
    step = 50 ms
    maxstep = 500 ms
    ic = all
    useprevic = no
    skipdc = no
    reltol = 10e-06
    abstol(V) = 1 uV
    abstol(I) = 1 pA
    temp = 27 C
    tnom = 27 C
    tempeffects = all
    errpreset = conservative
    method = gear2only
    lteratio = 10
    relref = alllocal
    cmin = 0 F
    gmin = 1 pS
    rabsshort = 1 mOhm


Notice from spectre during transient analysis `tran', during Monte Carlo analysis `mc1'.
    Multithreading is disabled due to the size of the design being too small.


Output and IC/nodeset summary:
                 save   8       (current)
                 save   87      (voltage)

    tran: time = 1.295 s     (2.59 %), step = 88.81 ms     (178 m%)
    tran: time = 3.846 s     (7.69 %), step = 334.8 ms     (670 m%)
    tran: time = 6.528 s     (13.1 %), step = 500 ms          (1 %)
    tran: time = 9.028 s     (18.1 %), step = 500 ms          (1 %)
    tran: time = 11.53 s     (23.1 %), step = 500 ms          (1 %)
    tran: time = 14.03 s     (28.1 %), step = 500 ms          (1 %)
    tran: time = 16.53 s     (33.1 %), step = 500 ms          (1 %)
    tran: time = 19.03 s     (38.1 %), step = 500 ms          (1 %)
    tran: time = 21.53 s     (43.1 %), step = 500 ms          (1 %)
    tran: time = 24.03 s     (48.1 %), step = 500 ms          (1 %)
    tran: time = 26.53 s     (53.1 %), step = 500 ms          (1 %)
    tran: time = 29.03 s     (58.1 %), step = 500 ms          (1 %)
    tran: time = 31.53 s     (63.1 %), step = 500 ms          (1 %)
    tran: time = 34.03 s     (68.1 %), step = 500 ms          (1 %)
    tran: time = 36.53 s     (73.1 %), step = 500 ms          (1 %)
    tran: time = 39.03 s     (78.1 %), step = 500 ms          (1 %)
    tran: time = 41.53 s     (83.1 %), step = 500 ms          (1 %)
    tran: time = 44.03 s     (88.1 %), step = 500 ms          (1 %)
    tran: time = 46.53 s     (93.1 %), step = 500 ms          (1 %)
    tran: time = 49.03 s     (98.1 %), step = 500 ms          (1 %)
Number of accepted tran steps =             733

Maximum value achieved for any signal of each quantity: 
V: V(S<0>) = 3.3 V
I: I(V8:p) = 6.457 uA

~~~~~~~~~~~~~~~~~~~~~~~~~~~~~~~~~
Post-Transient Simulation Summary
~~~~~~~~~~~~~~~~~~~~~~~~~~~~~~~~~
   -   To further speed up simulation, consider
          add ++aps on command line
   -   Non-default settings that could significantly slow down simulation
          errpreset = conservative, default moderate
          reltol = 10e-06, default 100e-06 (conservative)
~~~~~~~~~~~~~~~~~~~~~~~~~~~~~~~~~


During simulation, the CPU load for active processors is :
         0 (100.0 %)     1 (31.0 %)      2 (16.0 %)      3 (10.0 %)
         4 (8.5 %)       5 (2.0 %)       6 (3.0 %)       7 (10.8 %)
         8 (2.2 %)       9 (2.0 %)      10 (21.4 %)     11 (100.0 %)
        12 (26.2 %)     13 (33.5 %)     14 (15.4 %)     15 (6.9 %)
        16 (39.3 %)     17 (17.5 %)     18 (20.8 %)     19 (14.6 %)
        20 (12.8 %)     21 (6.7 %)      22 (21.7 %)     23 (12.6 %)
        24 (76.7 %)     25 (71.6 %)     26 (8.1 %)      27 (7.7 %)
        28 (6.5 %)      29 (16.4 %)     30 (20.4 %)     31 (8.2 %)
        32 (7.4 %)      33 (43.1 %)     34 (24.8 %)     35 (19.5 %)
        36 (14.0 %)     37 (21.6 %)     38 (9.1 %)      39 (4.5 %)
        40 (100.0 %)    41 (5.4 %)      42 (9.2 %)      43 (23.8 %)
        44 (63.0 %)     45 (5.4 %)      46 (3.0 %)      47 (38.2 %)
        Total: 1142.2%
Initial condition solution time: CPU = 2.737 ms, elapsed = 2.73895 ms.
Intrinsic tran analysis time:    CPU = 447.862 ms, elapsed = 449.678 ms.
Total time required for tran analysis `tran': CPU = 453.031 ms, elapsed = 455.514 ms, util. = 99.5%.
Time accumulated: CPU = 3.51128 s, elapsed = 4.1684 s.
Peak resident memory used = 213 Mbytes.


Notice from spectre during transient analysis `tran', during Monte Carlo analysis `mc1'.
    34 warnings suppressed.

finalTimeOP: writing operating point information to rawfile.

Opening the PSF file ../psf/mc1_separate/005/finalTimeOP.info ...
modelParameter: writing model parameter values to rawfile.

Opening the PSF file ../psf/mc1_separate/005/modelParameter.info ...
element: writing instance parameter values to rawfile.

Opening the PSF file ../psf/mc1_separate/005/element.info ...
outputParameter: writing output parameter values to rawfile.

Opening the PSF file ../psf/mc1_separate/005/outputParameter.info ...
designParamVals: writing netlist parameters to rawfile.

Opening the PSFASCII file ../psf/mc1_separate/005/designParamVals.info ...
primitives: writing primitives to rawfile.

Opening the PSFASCII file ../psf/mc1_separate/005/primitives.info.primitives ...
subckts: writing subcircuits to rawfile.

Opening the PSFASCII file ../psf/mc1_separate/005/subckts.info.subckts ...
    mc1: iteration = 5           (4.04 %), step = 1            (1.01 %)
6   5.05% 

*****************************************************************************************
* 
* INFO: AMS_processOption = C35B4C3
* 
* INFO: Valid Modules  PIP VG5 HIRES
* 
*****************************************************************************************


Notice from spectre during Monte Carlo analysis `mc1'.
    V8: `period' has the unusually large value of 100 s.


***********************************************
Transient Analysis `tran': time = (0 s -> 50 s)
***********************************************

Opening the PSF file ../psf/mc1_separate/006/tran.tran.tran ...

Warning from spectre during check, during IC analysis, during transient analysis `tran', during Monte Carlo analysis `mc1'.
    WARNING (CMI-2943): Parameter checks have been ignored because the valid value for parameter 'trise' could not be found in 'C1'.
    WARNING (CMI-2943): Parameter checks have been ignored because the valid value for parameter 'trise' could not be found in 'I0.R2.CM'.
    WARNING (CMI-2943): Parameter checks have been ignored because the valid value for parameter 'trise' could not be found in 'I0.R2.CS1'.
    WARNING (CMI-2943): Parameter checks have been ignored because the valid value for parameter 'trise' could not be found in 'I0.R2.CS0'.
    WARNING (CMI-2943): Parameter checks have been ignored because the valid value for parameter 'trise' could not be found in 'I0.C3.C1'.
        Further occurrences of this warning will be suppressed.

Convergence achieved in 12 iterations.
DC simulation time: CPU = 2.44 ms, elapsed = 2.43998 ms.
Important parameter values:
    start = 0 s
    outputstart = 0 s
    stop = 50 s
    step = 50 ms
    maxstep = 500 ms
    ic = all
    useprevic = no
    skipdc = no
    reltol = 10e-06
    abstol(V) = 1 uV
    abstol(I) = 1 pA
    temp = 27 C
    tnom = 27 C
    tempeffects = all
    errpreset = conservative
    method = gear2only
    lteratio = 10
    relref = alllocal
    cmin = 0 F
    gmin = 1 pS
    rabsshort = 1 mOhm


Notice from spectre during transient analysis `tran', during Monte Carlo analysis `mc1'.
    Multithreading is disabled due to the size of the design being too small.


Output and IC/nodeset summary:
                 save   8       (current)
                 save   87      (voltage)

    tran: time = 1.295 s     (2.59 %), step = 88.81 ms     (178 m%)
    tran: time = 3.846 s     (7.69 %), step = 334.8 ms     (670 m%)
    tran: time = 6.528 s     (13.1 %), step = 500 ms          (1 %)
    tran: time = 9.028 s     (18.1 %), step = 500 ms          (1 %)
    tran: time = 11.53 s     (23.1 %), step = 500 ms          (1 %)
    tran: time = 14.03 s     (28.1 %), step = 500 ms          (1 %)
    tran: time = 16.53 s     (33.1 %), step = 500 ms          (1 %)
    tran: time = 19.03 s     (38.1 %), step = 500 ms          (1 %)
    tran: time = 21.53 s     (43.1 %), step = 500 ms          (1 %)
    tran: time = 24.03 s     (48.1 %), step = 500 ms          (1 %)
    tran: time = 26.53 s     (53.1 %), step = 500 ms          (1 %)
    tran: time = 29.03 s     (58.1 %), step = 500 ms          (1 %)
    tran: time = 31.53 s     (63.1 %), step = 500 ms          (1 %)
    tran: time = 34.03 s     (68.1 %), step = 500 ms          (1 %)
    tran: time = 36.53 s     (73.1 %), step = 500 ms          (1 %)
    tran: time = 39.03 s     (78.1 %), step = 500 ms          (1 %)
    tran: time = 41.53 s     (83.1 %), step = 500 ms          (1 %)
    tran: time = 44.03 s     (88.1 %), step = 500 ms          (1 %)
    tran: time = 46.53 s     (93.1 %), step = 500 ms          (1 %)
    tran: time = 49.03 s     (98.1 %), step = 500 ms          (1 %)
Number of accepted tran steps =             733

Maximum value achieved for any signal of each quantity: 
V: V(S<0>) = 3.3 V
I: I(V8:p) = 6.457 uA

~~~~~~~~~~~~~~~~~~~~~~~~~~~~~~~~~
Post-Transient Simulation Summary
~~~~~~~~~~~~~~~~~~~~~~~~~~~~~~~~~
   -   To further speed up simulation, consider
          add ++aps on command line
   -   Non-default settings that could significantly slow down simulation
          errpreset = conservative, default moderate
          reltol = 10e-06, default 100e-06 (conservative)
~~~~~~~~~~~~~~~~~~~~~~~~~~~~~~~~~


During simulation, the CPU load for active processors is :
         0 (100.0 %)     1 (38.0 %)      2 (14.7 %)      3 (9.3 %)
         4 (7.6 %)       5 (2.0 %)       6 (2.9 %)       7 (10.0 %)
         8 (2.2 %)       9 (2.0 %)      10 (19.4 %)     11 (100.0 %)
        12 (34.1 %)     13 (33.9 %)     14 (21.6 %)     15 (6.6 %)
        16 (35.2 %)     17 (15.6 %)     18 (20.4 %)     19 (13.3 %)
        20 (13.4 %)     21 (6.4 %)      22 (19.8 %)     23 (11.7 %)
        24 (79.0 %)     25 (64.4 %)     26 (10.1 %)     27 (7.6 %)
        28 (6.4 %)      29 (14.7 %)     30 (19.7 %)     31 (8.4 %)
        32 (7.0 %)      33 (44.5 %)     34 (22.5 %)     35 (17.8 %)
        36 (16.2 %)     37 (19.8 %)     38 (8.4 %)      39 (4.4 %)
        40 (100.0 %)    41 (5.1 %)      42 (8.4 %)      43 (31.2 %)
        44 (56.5 %)     45 (5.1 %)      46 (3.1 %)      47 (41.5 %)
        Total: 1141.6%
Initial condition solution time: CPU = 2.481 ms, elapsed = 2.48194 ms.
Intrinsic tran analysis time:    CPU = 448.462 ms, elapsed = 449.979 ms.
Total time required for tran analysis `tran': CPU = 453.302 ms, elapsed = 455.539 ms, util. = 99.5%.
Time accumulated: CPU = 4.0016 s, elapsed = 4.67307 s.
Peak resident memory used = 213 Mbytes.


Notice from spectre during transient analysis `tran', during Monte Carlo analysis `mc1'.
    34 warnings suppressed.

finalTimeOP: writing operating point information to rawfile.

Opening the PSF file ../psf/mc1_separate/006/finalTimeOP.info ...
modelParameter: writing model parameter values to rawfile.

Opening the PSF file ../psf/mc1_separate/006/modelParameter.info ...
element: writing instance parameter values to rawfile.

Opening the PSF file ../psf/mc1_separate/006/element.info ...
outputParameter: writing output parameter values to rawfile.

Opening the PSF file ../psf/mc1_separate/006/outputParameter.info ...
designParamVals: writing netlist parameters to rawfile.

Opening the PSFASCII file ../psf/mc1_separate/006/designParamVals.info ...
primitives: writing primitives to rawfile.

Opening the PSFASCII file ../psf/mc1_separate/006/primitives.info.primitives ...
subckts: writing subcircuits to rawfile.

Opening the PSFASCII file ../psf/mc1_separate/006/subckts.info.subckts ...
    mc1: iteration = 6           (5.05 %), step = 1            (1.01 %)
7   6.06% 

*****************************************************************************************
* 
* INFO: AMS_processOption = C35B4C3
* 
* INFO: Valid Modules  PIP VG5 HIRES
* 
*****************************************************************************************


Notice from spectre during Monte Carlo analysis `mc1'.
    V8: `period' has the unusually large value of 100 s.


***********************************************
Transient Analysis `tran': time = (0 s -> 50 s)
***********************************************

Opening the PSF file ../psf/mc1_separate/007/tran.tran.tran ...

Warning from spectre during check, during IC analysis, during transient analysis `tran', during Monte Carlo analysis `mc1'.
    WARNING (CMI-2943): Parameter checks have been ignored because the valid value for parameter 'trise' could not be found in 'C1'.
    WARNING (CMI-2943): Parameter checks have been ignored because the valid value for parameter 'trise' could not be found in 'I0.R2.CM'.
    WARNING (CMI-2943): Parameter checks have been ignored because the valid value for parameter 'trise' could not be found in 'I0.R2.CS1'.
    WARNING (CMI-2943): Parameter checks have been ignored because the valid value for parameter 'trise' could not be found in 'I0.R2.CS0'.
    WARNING (CMI-2943): Parameter checks have been ignored because the valid value for parameter 'trise' could not be found in 'I0.C3.C1'.
        Further occurrences of this warning will be suppressed.

Convergence achieved in 12 iterations.
DC simulation time: CPU = 2.659 ms, elapsed = 2.6598 ms.
Important parameter values:
    start = 0 s
    outputstart = 0 s
    stop = 50 s
    step = 50 ms
    maxstep = 500 ms
    ic = all
    useprevic = no
    skipdc = no
    reltol = 10e-06
    abstol(V) = 1 uV
    abstol(I) = 1 pA
    temp = 27 C
    tnom = 27 C
    tempeffects = all
    errpreset = conservative
    method = gear2only
    lteratio = 10
    relref = alllocal
    cmin = 0 F
    gmin = 1 pS
    rabsshort = 1 mOhm


Notice from spectre during transient analysis `tran', during Monte Carlo analysis `mc1'.
    Multithreading is disabled due to the size of the design being too small.


Output and IC/nodeset summary:
                 save   8       (current)
                 save   87      (voltage)

    tran: time = 1.295 s     (2.59 %), step = 88.81 ms     (178 m%)
    tran: time = 3.846 s     (7.69 %), step = 334.8 ms     (670 m%)
    tran: time = 6.528 s     (13.1 %), step = 500 ms          (1 %)
    tran: time = 9.028 s     (18.1 %), step = 500 ms          (1 %)
    tran: time = 11.53 s     (23.1 %), step = 500 ms          (1 %)
    tran: time = 14.03 s     (28.1 %), step = 500 ms          (1 %)
    tran: time = 16.53 s     (33.1 %), step = 500 ms          (1 %)
    tran: time = 19.03 s     (38.1 %), step = 500 ms          (1 %)
    tran: time = 21.53 s     (43.1 %), step = 500 ms          (1 %)
    tran: time = 24.03 s     (48.1 %), step = 500 ms          (1 %)
    tran: time = 26.53 s     (53.1 %), step = 500 ms          (1 %)
    tran: time = 29.03 s     (58.1 %), step = 500 ms          (1 %)
    tran: time = 31.53 s     (63.1 %), step = 500 ms          (1 %)
    tran: time = 34.03 s     (68.1 %), step = 500 ms          (1 %)
    tran: time = 36.53 s     (73.1 %), step = 500 ms          (1 %)
    tran: time = 39.03 s     (78.1 %), step = 500 ms          (1 %)
    tran: time = 41.53 s     (83.1 %), step = 500 ms          (1 %)
    tran: time = 44.03 s     (88.1 %), step = 500 ms          (1 %)
    tran: time = 46.53 s     (93.1 %), step = 500 ms          (1 %)
    tran: time = 49.03 s     (98.1 %), step = 500 ms          (1 %)
Number of accepted tran steps =             733

Maximum value achieved for any signal of each quantity: 
V: V(S<0>) = 3.3 V
I: I(V8:p) = 6.457 uA

~~~~~~~~~~~~~~~~~~~~~~~~~~~~~~~~~
Post-Transient Simulation Summary
~~~~~~~~~~~~~~~~~~~~~~~~~~~~~~~~~
   -   To further speed up simulation, consider
          add ++aps on command line
   -   Non-default settings that could significantly slow down simulation
          errpreset = conservative, default moderate
          reltol = 10e-06, default 100e-06 (conservative)
~~~~~~~~~~~~~~~~~~~~~~~~~~~~~~~~~


During simulation, the CPU load for active processors is :
         0 (100.0 %)     1 (37.1 %)      2 (18.2 %)      3 (8.9 %)
         4 (7.0 %)       5 (2.6 %)       6 (2.6 %)       7 (9.4 %)
         8 (2.2 %)       9 (2.0 %)      10 (17.6 %)     11 (100.0 %)
        12 (40.7 %)     13 (31.0 %)     14 (28.9 %)     15 (6.2 %)
        16 (32.2 %)     17 (14.7 %)     18 (18.7 %)     19 (13.1 %)
        20 (14.6 %)     21 (6.4 %)      22 (18.1 %)     23 (11.1 %)
        24 (72.9 %)     25 (59.9 %)     26 (18.1 %)     27 (7.4 %)
        28 (7.6 %)      29 (16.2 %)     30 (20.2 %)     31 (8.7 %)
        32 (6.5 %)      33 (40.3 %)     34 (20.5 %)     35 (16.6 %)
        36 (15.6 %)     37 (19.2 %)     38 (9.1 %)      39 (4.2 %)
        40 (100.0 %)    41 (4.6 %)      42 (8.0 %)      43 (35.3 %)
        44 (51.3 %)     45 (5.2 %)      46 (3.2 %)      47 (38.1 %)
        Total: 1131.9%
Initial condition solution time: CPU = 2.706 ms, elapsed = 2.70796 ms.
Intrinsic tran analysis time:    CPU = 453.97 ms, elapsed = 455.609 ms.
Total time required for tran analysis `tran': CPU = 459.252 ms, elapsed = 461.741 ms, util. = 99.5%.
Time accumulated: CPU = 4.49812 s, elapsed = 5.18337 s.
Peak resident memory used = 213 Mbytes.


Notice from spectre during transient analysis `tran', during Monte Carlo analysis `mc1'.
    34 warnings suppressed.

finalTimeOP: writing operating point information to rawfile.

Opening the PSF file ../psf/mc1_separate/007/finalTimeOP.info ...
modelParameter: writing model parameter values to rawfile.

Opening the PSF file ../psf/mc1_separate/007/modelParameter.info ...
element: writing instance parameter values to rawfile.

Opening the PSF file ../psf/mc1_separate/007/element.info ...
outputParameter: writing output parameter values to rawfile.

Opening the PSF file ../psf/mc1_separate/007/outputParameter.info ...
designParamVals: writing netlist parameters to rawfile.

Opening the PSFASCII file ../psf/mc1_separate/007/designParamVals.info ...
primitives: writing primitives to rawfile.

Opening the PSFASCII file ../psf/mc1_separate/007/primitives.info.primitives ...
subckts: writing subcircuits to rawfile.

Opening the PSFASCII file ../psf/mc1_separate/007/subckts.info.subckts ...
    mc1: iteration = 7           (6.06 %), step = 1            (1.01 %)
8   7.07% 

*****************************************************************************************
* 
* INFO: AMS_processOption = C35B4C3
* 
* INFO: Valid Modules  PIP VG5 HIRES
* 
*****************************************************************************************


Notice from spectre during Monte Carlo analysis `mc1'.
    V8: `period' has the unusually large value of 100 s.


***********************************************
Transient Analysis `tran': time = (0 s -> 50 s)
***********************************************

Opening the PSF file ../psf/mc1_separate/008/tran.tran.tran ...

Warning from spectre during check, during IC analysis, during transient analysis `tran', during Monte Carlo analysis `mc1'.
    WARNING (CMI-2943): Parameter checks have been ignored because the valid value for parameter 'trise' could not be found in 'C1'.
    WARNING (CMI-2943): Parameter checks have been ignored because the valid value for parameter 'trise' could not be found in 'I0.R2.CM'.
    WARNING (CMI-2943): Parameter checks have been ignored because the valid value for parameter 'trise' could not be found in 'I0.R2.CS1'.
    WARNING (CMI-2943): Parameter checks have been ignored because the valid value for parameter 'trise' could not be found in 'I0.R2.CS0'.
    WARNING (CMI-2943): Parameter checks have been ignored because the valid value for parameter 'trise' could not be found in 'I0.C3.C1'.
        Further occurrences of this warning will be suppressed.

Convergence achieved in 12 iterations.
DC simulation time: CPU = 2.559 ms, elapsed = 2.55895 ms.
Important parameter values:
    start = 0 s
    outputstart = 0 s
    stop = 50 s
    step = 50 ms
    maxstep = 500 ms
    ic = all
    useprevic = no
    skipdc = no
    reltol = 10e-06
    abstol(V) = 1 uV
    abstol(I) = 1 pA
    temp = 27 C
    tnom = 27 C
    tempeffects = all
    errpreset = conservative
    method = gear2only
    lteratio = 10
    relref = alllocal
    cmin = 0 F
    gmin = 1 pS
    rabsshort = 1 mOhm


Notice from spectre during transient analysis `tran', during Monte Carlo analysis `mc1'.
    Multithreading is disabled due to the size of the design being too small.


Output and IC/nodeset summary:
                 save   8       (current)
                 save   87      (voltage)

    tran: time = 1.295 s     (2.59 %), step = 88.81 ms     (178 m%)
    tran: time = 3.846 s     (7.69 %), step = 334.8 ms     (670 m%)
    tran: time = 6.528 s     (13.1 %), step = 500 ms          (1 %)
    tran: time = 9.028 s     (18.1 %), step = 500 ms          (1 %)
    tran: time = 11.53 s     (23.1 %), step = 500 ms          (1 %)
    tran: time = 14.03 s     (28.1 %), step = 500 ms          (1 %)
    tran: time = 16.53 s     (33.1 %), step = 500 ms          (1 %)
    tran: time = 19.03 s     (38.1 %), step = 500 ms          (1 %)
    tran: time = 21.53 s     (43.1 %), step = 500 ms          (1 %)
    tran: time = 24.03 s     (48.1 %), step = 500 ms          (1 %)
    tran: time = 26.53 s     (53.1 %), step = 500 ms          (1 %)
    tran: time = 29.03 s     (58.1 %), step = 500 ms          (1 %)
    tran: time = 31.53 s     (63.1 %), step = 500 ms          (1 %)
    tran: time = 34.03 s     (68.1 %), step = 500 ms          (1 %)
    tran: time = 36.53 s     (73.1 %), step = 500 ms          (1 %)
    tran: time = 39.03 s     (78.1 %), step = 500 ms          (1 %)
    tran: time = 41.53 s     (83.1 %), step = 500 ms          (1 %)
    tran: time = 44.03 s     (88.1 %), step = 500 ms          (1 %)
    tran: time = 46.53 s     (93.1 %), step = 500 ms          (1 %)
    tran: time = 49.03 s     (98.1 %), step = 500 ms          (1 %)
Number of accepted tran steps =             733

Maximum value achieved for any signal of each quantity: 
V: V(S<0>) = 3.3 V
I: I(V8:p) = 6.457 uA

~~~~~~~~~~~~~~~~~~~~~~~~~~~~~~~~~
Post-Transient Simulation Summary
~~~~~~~~~~~~~~~~~~~~~~~~~~~~~~~~~
   -   To further speed up simulation, consider
          add ++aps on command line
   -   Non-default settings that could significantly slow down simulation
          errpreset = conservative, default moderate
          reltol = 10e-06, default 100e-06 (conservative)
~~~~~~~~~~~~~~~~~~~~~~~~~~~~~~~~~


During simulation, the CPU load for active processors is :
         0 (100.0 %)     1 (34.5 %)      2 (20.8 %)      3 (8.3 %)
         4 (6.5 %)       5 (2.7 %)       6 (2.9 %)       7 (8.8 %)
         8 (2.5 %)       9 (2.7 %)      10 (16.8 %)     11 (100.0 %)
        12 (46.0 %)     13 (28.9 %)     14 (35.4 %)     15 (5.8 %)
        16 (29.5 %)     17 (14.0 %)     18 (17.4 %)     19 (13.4 %)
        20 (15.1 %)     21 (6.2 %)      22 (17.1 %)     23 (10.3 %)
        24 (71.9 %)     25 (56.6 %)     26 (25.0 %)     27 (7.7 %)
        28 (7.3 %)      29 (14.9 %)     30 (20.2 %)     31 (8.3 %)
        32 (6.5 %)      33 (37.3 %)     34 (18.8 %)     35 (15.5 %)
        36 (14.8 %)     37 (18.2 %)     38 (9.2 %)      39 (5.1 %)
        40 (100.0 %)    41 (4.7 %)      42 (8.7 %)      43 (35.4 %)
        44 (47.6 %)     45 (5.2 %)      46 (3.1 %)      47 (35.5 %)
        Total: 1122.9%
Initial condition solution time: CPU = 2.605 ms, elapsed = 2.60687 ms.
Intrinsic tran analysis time:    CPU = 453.416 ms, elapsed = 454.981 ms.
Total time required for tran analysis `tran': CPU = 458.548 ms, elapsed = 460.868 ms, util. = 99.5%.
Time accumulated: CPU = 4.99419 s, elapsed = 5.69308 s.
Peak resident memory used = 213 Mbytes.


Notice from spectre during transient analysis `tran', during Monte Carlo analysis `mc1'.
    34 warnings suppressed.

finalTimeOP: writing operating point information to rawfile.

Opening the PSF file ../psf/mc1_separate/008/finalTimeOP.info ...
modelParameter: writing model parameter values to rawfile.

Opening the PSF file ../psf/mc1_separate/008/modelParameter.info ...
element: writing instance parameter values to rawfile.

Opening the PSF file ../psf/mc1_separate/008/element.info ...
outputParameter: writing output parameter values to rawfile.

Opening the PSF file ../psf/mc1_separate/008/outputParameter.info ...
designParamVals: writing netlist parameters to rawfile.

Opening the PSFASCII file ../psf/mc1_separate/008/designParamVals.info ...
primitives: writing primitives to rawfile.

Opening the PSFASCII file ../psf/mc1_separate/008/primitives.info.primitives ...
subckts: writing subcircuits to rawfile.

Opening the PSFASCII file ../psf/mc1_separate/008/subckts.info.subckts ...
    mc1: iteration = 8           (7.07 %), step = 1            (1.01 %)
9   8.08% 

*****************************************************************************************
* 
* INFO: AMS_processOption = C35B4C3
* 
* INFO: Valid Modules  PIP VG5 HIRES
* 
*****************************************************************************************


Notice from spectre during Monte Carlo analysis `mc1'.
    V8: `period' has the unusually large value of 100 s.


***********************************************
Transient Analysis `tran': time = (0 s -> 50 s)
***********************************************

Opening the PSF file ../psf/mc1_separate/009/tran.tran.tran ...

Warning from spectre during check, during IC analysis, during transient analysis `tran', during Monte Carlo analysis `mc1'.
    WARNING (CMI-2943): Parameter checks have been ignored because the valid value for parameter 'trise' could not be found in 'C1'.
    WARNING (CMI-2943): Parameter checks have been ignored because the valid value for parameter 'trise' could not be found in 'I0.R2.CM'.
    WARNING (CMI-2943): Parameter checks have been ignored because the valid value for parameter 'trise' could not be found in 'I0.R2.CS1'.
    WARNING (CMI-2943): Parameter checks have been ignored because the valid value for parameter 'trise' could not be found in 'I0.R2.CS0'.
    WARNING (CMI-2943): Parameter checks have been ignored because the valid value for parameter 'trise' could not be found in 'I0.C3.C1'.
        Further occurrences of this warning will be suppressed.

Convergence achieved in 12 iterations.
DC simulation time: CPU = 2.614 ms, elapsed = 2.61998 ms.
Important parameter values:
    start = 0 s
    outputstart = 0 s
    stop = 50 s
    step = 50 ms
    maxstep = 500 ms
    ic = all
    useprevic = no
    skipdc = no
    reltol = 10e-06
    abstol(V) = 1 uV
    abstol(I) = 1 pA
    temp = 27 C
    tnom = 27 C
    tempeffects = all
    errpreset = conservative
    method = gear2only
    lteratio = 10
    relref = alllocal
    cmin = 0 F
    gmin = 1 pS
    rabsshort = 1 mOhm


Notice from spectre during transient analysis `tran', during Monte Carlo analysis `mc1'.
    Multithreading is disabled due to the size of the design being too small.


Output and IC/nodeset summary:
                 save   8       (current)
                 save   87      (voltage)

    tran: time = 1.295 s     (2.59 %), step = 88.81 ms     (178 m%)
    tran: time = 3.846 s     (7.69 %), step = 334.8 ms     (670 m%)
    tran: time = 6.528 s     (13.1 %), step = 500 ms          (1 %)
    tran: time = 9.028 s     (18.1 %), step = 500 ms          (1 %)
    tran: time = 11.53 s     (23.1 %), step = 500 ms          (1 %)
    tran: time = 14.03 s     (28.1 %), step = 500 ms          (1 %)
    tran: time = 16.53 s     (33.1 %), step = 500 ms          (1 %)
    tran: time = 19.03 s     (38.1 %), step = 500 ms          (1 %)
    tran: time = 21.53 s     (43.1 %), step = 500 ms          (1 %)
    tran: time = 24.03 s     (48.1 %), step = 500 ms          (1 %)
    tran: time = 26.53 s     (53.1 %), step = 500 ms          (1 %)
    tran: time = 29.03 s     (58.1 %), step = 500 ms          (1 %)
    tran: time = 31.53 s     (63.1 %), step = 500 ms          (1 %)
    tran: time = 34.03 s     (68.1 %), step = 500 ms          (1 %)
    tran: time = 36.53 s     (73.1 %), step = 500 ms          (1 %)
    tran: time = 39.03 s     (78.1 %), step = 500 ms          (1 %)
    tran: time = 41.53 s     (83.1 %), step = 500 ms          (1 %)
    tran: time = 44.03 s     (88.1 %), step = 500 ms          (1 %)
    tran: time = 46.53 s     (93.1 %), step = 500 ms          (1 %)
    tran: time = 49.03 s     (98.1 %), step = 500 ms          (1 %)
Number of accepted tran steps =             733

Maximum value achieved for any signal of each quantity: 
V: V(S<0>) = 3.3 V
I: I(V8:p) = 6.457 uA

~~~~~~~~~~~~~~~~~~~~~~~~~~~~~~~~~
Post-Transient Simulation Summary
~~~~~~~~~~~~~~~~~~~~~~~~~~~~~~~~~
   -   To further speed up simulation, consider
          add ++aps on command line
   -   Non-default settings that could significantly slow down simulation
          errpreset = conservative, default moderate
          reltol = 10e-06, default 100e-06 (conservative)
~~~~~~~~~~~~~~~~~~~~~~~~~~~~~~~~~


During simulation, the CPU load for active processors is :
         0 (100.0 %)     1 (32.1 %)      2 (19.2 %)      3 (7.8 %)
         4 (7.0 %)       5 (3.5 %)       6 (3.0 %)       7 (10.1 %)
         8 (3.2 %)       9 (4.1 %)      10 (15.7 %)     11 (99.8 %)
        12 (48.8 %)     13 (31.5 %)     14 (35.5 %)     15 (5.3 %)
        16 (27.8 %)     17 (14.0 %)     18 (18.1 %)     19 (12.6 %)
        20 (15.0 %)     21 (6.5 %)      22 (16.0 %)     23 (10.5 %)
        24 (67.1 %)     25 (53.4 %)     26 (31.0 %)     27 (8.5 %)
        28 (8.5 %)      29 (14.5 %)     30 (20.8 %)     31 (9.7 %)
        32 (7.8 %)      33 (34.8 %)     34 (17.4 %)     35 (14.6 %)
        36 (14.0 %)     37 (18.2 %)     38 (9.1 %)      39 (6.9 %)
        40 (100.0 %)    41 (4.7 %)      42 (11.3 %)     43 (36.3 %)
        44 (44.7 %)     45 (5.6 %)      46 (3.3 %)      47 (33.1 %)
        Total: 1122.2%
Initial condition solution time: CPU = 2.697 ms, elapsed = 2.69914 ms.
Intrinsic tran analysis time:    CPU = 455.063 ms, elapsed = 457.037 ms.
Total time required for tran analysis `tran': CPU = 460.328 ms, elapsed = 462.914 ms, util. = 99.4%.
Time accumulated: CPU = 5.49216 s, elapsed = 6.20527 s.
Peak resident memory used = 213 Mbytes.


Notice from spectre during transient analysis `tran', during Monte Carlo analysis `mc1'.
    34 warnings suppressed.

finalTimeOP: writing operating point information to rawfile.

Opening the PSF file ../psf/mc1_separate/009/finalTimeOP.info ...
modelParameter: writing model parameter values to rawfile.

Opening the PSF file ../psf/mc1_separate/009/modelParameter.info ...
element: writing instance parameter values to rawfile.

Opening the PSF file ../psf/mc1_separate/009/element.info ...
outputParameter: writing output parameter values to rawfile.

Opening the PSF file ../psf/mc1_separate/009/outputParameter.info ...
designParamVals: writing netlist parameters to rawfile.

Opening the PSFASCII file ../psf/mc1_separate/009/designParamVals.info ...
primitives: writing primitives to rawfile.

Opening the PSFASCII file ../psf/mc1_separate/009/primitives.info.primitives ...
subckts: writing subcircuits to rawfile.

Opening the PSFASCII file ../psf/mc1_separate/009/subckts.info.subckts ...
    mc1: iteration = 9           (8.08 %), step = 1            (1.01 %)
10   9.09% 

*****************************************************************************************
* 
* INFO: AMS_processOption = C35B4C3
* 
* INFO: Valid Modules  PIP VG5 HIRES
* 
*****************************************************************************************


Notice from spectre during Monte Carlo analysis `mc1'.
    V8: `period' has the unusually large value of 100 s.


***********************************************
Transient Analysis `tran': time = (0 s -> 50 s)
***********************************************

Opening the PSF file ../psf/mc1_separate/010/tran.tran.tran ...

Warning from spectre during check, during IC analysis, during transient analysis `tran', during Monte Carlo analysis `mc1'.
    WARNING (CMI-2943): Parameter checks have been ignored because the valid value for parameter 'trise' could not be found in 'C1'.
    WARNING (CMI-2943): Parameter checks have been ignored because the valid value for parameter 'trise' could not be found in 'I0.R2.CM'.
    WARNING (CMI-2943): Parameter checks have been ignored because the valid value for parameter 'trise' could not be found in 'I0.R2.CS1'.
    WARNING (CMI-2943): Parameter checks have been ignored because the valid value for parameter 'trise' could not be found in 'I0.R2.CS0'.
    WARNING (CMI-2943): Parameter checks have been ignored because the valid value for parameter 'trise' could not be found in 'I0.C3.C1'.
        Further occurrences of this warning will be suppressed.

Convergence achieved in 12 iterations.
DC simulation time: CPU = 2.686 ms, elapsed = 2.68507 ms.
Important parameter values:
    start = 0 s
    outputstart = 0 s
    stop = 50 s
    step = 50 ms
    maxstep = 500 ms
    ic = all
    useprevic = no
    skipdc = no
    reltol = 10e-06
    abstol(V) = 1 uV
    abstol(I) = 1 pA
    temp = 27 C
    tnom = 27 C
    tempeffects = all
    errpreset = conservative
    method = gear2only
    lteratio = 10
    relref = alllocal
    cmin = 0 F
    gmin = 1 pS
    rabsshort = 1 mOhm


Notice from spectre during transient analysis `tran', during Monte Carlo analysis `mc1'.
    Multithreading is disabled due to the size of the design being too small.


Output and IC/nodeset summary:
                 save   8       (current)
                 save   87      (voltage)

    tran: time = 1.295 s     (2.59 %), step = 88.81 ms     (178 m%)
    tran: time = 3.846 s     (7.69 %), step = 334.8 ms     (670 m%)
    tran: time = 6.528 s     (13.1 %), step = 500 ms          (1 %)
    tran: time = 9.028 s     (18.1 %), step = 500 ms          (1 %)
    tran: time = 11.53 s     (23.1 %), step = 500 ms          (1 %)
    tran: time = 14.03 s     (28.1 %), step = 500 ms          (1 %)
    tran: time = 16.53 s     (33.1 %), step = 500 ms          (1 %)
    tran: time = 19.03 s     (38.1 %), step = 500 ms          (1 %)
    tran: time = 21.53 s     (43.1 %), step = 500 ms          (1 %)
    tran: time = 24.03 s     (48.1 %), step = 500 ms          (1 %)
    tran: time = 26.53 s     (53.1 %), step = 500 ms          (1 %)
    tran: time = 29.03 s     (58.1 %), step = 500 ms          (1 %)
    tran: time = 31.53 s     (63.1 %), step = 500 ms          (1 %)
[...]


***********************************************
Transient Analysis `tran': time = (0 s -> 50 s)
***********************************************

Opening the PSF file ../psf/mc1_separate/098/tran.tran.tran ...

Warning from spectre during check, during IC analysis, during transient analysis `tran', during Monte Carlo analysis `mc1'.
    WARNING (CMI-2943): Parameter checks have been ignored because the valid value for parameter 'trise' could not be found in 'C1'.
    WARNING (CMI-2943): Parameter checks have been ignored because the valid value for parameter 'trise' could not be found in 'I0.R2.CM'.
    WARNING (CMI-2943): Parameter checks have been ignored because the valid value for parameter 'trise' could not be found in 'I0.R2.CS1'.
    WARNING (CMI-2943): Parameter checks have been ignored because the valid value for parameter 'trise' could not be found in 'I0.R2.CS0'.
    WARNING (CMI-2943): Parameter checks have been ignored because the valid value for parameter 'trise' could not be found in 'I0.C3.C1'.
        Further occurrences of this warning will be suppressed.

Convergence achieved in 12 iterations.
DC simulation time: CPU = 2.226 ms, elapsed = 2.22707 ms.
Important parameter values:
    start = 0 s
    outputstart = 0 s
    stop = 50 s
    step = 50 ms
    maxstep = 500 ms
    ic = all
    useprevic = no
    skipdc = no
    reltol = 10e-06
    abstol(V) = 1 uV
    abstol(I) = 1 pA
    temp = 27 C
    tnom = 27 C
    tempeffects = all
    errpreset = conservative
    method = gear2only
    lteratio = 10
    relref = alllocal
    cmin = 0 F
    gmin = 1 pS
    rabsshort = 1 mOhm


Notice from spectre during transient analysis `tran', during Monte Carlo analysis `mc1'.
    Multithreading is disabled due to the size of the design being too small.


Output and IC/nodeset summary:
                 save   8       (current)
                 save   87      (voltage)

    tran: time = 1.295 s     (2.59 %), step = 88.81 ms     (178 m%)
    tran: time = 3.846 s     (7.69 %), step = 334.8 ms     (670 m%)
    tran: time = 6.528 s     (13.1 %), step = 500 ms          (1 %)
    tran: time = 9.028 s     (18.1 %), step = 500 ms          (1 %)
    tran: time = 11.53 s     (23.1 %), step = 500 ms          (1 %)
    tran: time = 14.03 s     (28.1 %), step = 500 ms          (1 %)
    tran: time = 16.53 s     (33.1 %), step = 500 ms          (1 %)
    tran: time = 19.03 s     (38.1 %), step = 500 ms          (1 %)
    tran: time = 21.53 s     (43.1 %), step = 500 ms          (1 %)
    tran: time = 24.03 s     (48.1 %), step = 500 ms          (1 %)
    tran: time = 26.53 s     (53.1 %), step = 500 ms          (1 %)
    tran: time = 29.03 s     (58.1 %), step = 500 ms          (1 %)
    tran: time = 31.53 s     (63.1 %), step = 500 ms          (1 %)
    tran: time = 34.03 s     (68.1 %), step = 500 ms          (1 %)
    tran: time = 36.53 s     (73.1 %), step = 500 ms          (1 %)
    tran: time = 39.03 s     (78.1 %), step = 500 ms          (1 %)
    tran: time = 41.53 s     (83.1 %), step = 500 ms          (1 %)
    tran: time = 44.03 s     (88.1 %), step = 500 ms          (1 %)
    tran: time = 46.53 s     (93.1 %), step = 500 ms          (1 %)
    tran: time = 49.03 s     (98.1 %), step = 500 ms          (1 %)
Number of accepted tran steps =             733

Maximum value achieved for any signal of each quantity: 
V: V(S<0>) = 3.3 V
I: I(V8:p) = 6.457 uA

~~~~~~~~~~~~~~~~~~~~~~~~~~~~~~~~~
Post-Transient Simulation Summary
~~~~~~~~~~~~~~~~~~~~~~~~~~~~~~~~~
   -   To further speed up simulation, consider
          add ++aps on command line
   -   Non-default settings that could significantly slow down simulation
          errpreset = conservative, default moderate
          reltol = 10e-06, default 100e-06 (conservative)
~~~~~~~~~~~~~~~~~~~~~~~~~~~~~~~~~


During simulation, the CPU load for active processors is :
         0 (48.5 %)      1 (44.5 %)      2 (35.7 %)      3 (17.4 %)
         4 (24.2 %)      5 (25.8 %)      6 (24.1 %)      7 (57.2 %)
         8 (76.1 %)      9 (14.9 %)     10 (27.5 %)     11 (45.2 %)
        12 (35.0 %)     13 (28.8 %)     14 (24.1 %)     15 (35.9 %)
        16 (22.8 %)     17 (36.5 %)     18 (50.5 %)     19 (34.8 %)
        20 (65.3 %)     21 (30.9 %)     22 (28.4 %)     23 (26.4 %)
        24 (40.2 %)     25 (29.0 %)     26 (25.3 %)     27 (50.7 %)
        28 (38.4 %)     29 (34.6 %)     30 (35.7 %)     31 (16.1 %)
        32 (25.4 %)     33 (31.5 %)     34 (38.4 %)     35 (35.1 %)
        36 (27.3 %)     37 (22.6 %)     38 (17.7 %)     39 (79.0 %)
        40 (57.0 %)     41 (29.2 %)     42 (13.4 %)     43 (30.7 %)
        44 (34.4 %)     45 (21.1 %)     46 (45.3 %)     47 (21.7 %)
        Total: 1660.1%
Initial condition solution time: CPU = 2.265 ms, elapsed = 2.26688 ms.
Intrinsic tran analysis time:    CPU = 405.929 ms, elapsed = 407.18 ms.
Total time required for tran analysis `tran': CPU = 410.766 ms, elapsed = 412.763 ms, util. = 99.5%.
Time accumulated: CPU = 48.3553 s, elapsed = 50.4428 s.
Peak resident memory used = 214 Mbytes.


Notice from spectre during transient analysis `tran', during Monte Carlo analysis `mc1'.
    34 warnings suppressed.

finalTimeOP: writing operating point information to rawfile.

Opening the PSF file ../psf/mc1_separate/098/finalTimeOP.info ...
modelParameter: writing model parameter values to rawfile.

Opening the PSF file ../psf/mc1_separate/098/modelParameter.info ...
element: writing instance parameter values to rawfile.

Opening the PSF file ../psf/mc1_separate/098/element.info ...
outputParameter: writing output parameter values to rawfile.

Opening the PSF file ../psf/mc1_separate/098/outputParameter.info ...
designParamVals: writing netlist parameters to rawfile.

Opening the PSFASCII file ../psf/mc1_separate/098/designParamVals.info ...
primitives: writing primitives to rawfile.

Opening the PSFASCII file ../psf/mc1_separate/098/primitives.info.primitives ...
subckts: writing subcircuits to rawfile.

Opening the PSFASCII file ../psf/mc1_separate/098/subckts.info.subckts ...
    mc1: iteration = 98            (98 %), step = 1            (1.01 %)
99  98.99% 

*****************************************************************************************
* 
* INFO: AMS_processOption = C35B4C3
* 
* INFO: Valid Modules  PIP VG5 HIRES
* 
*****************************************************************************************


Notice from spectre during Monte Carlo analysis `mc1'.
    V8: `period' has the unusually large value of 100 s.


***********************************************
Transient Analysis `tran': time = (0 s -> 50 s)
***********************************************

Opening the PSF file ../psf/mc1_separate/099/tran.tran.tran ...

Warning from spectre during check, during IC analysis, during transient analysis `tran', during Monte Carlo analysis `mc1'.
    WARNING (CMI-2943): Parameter checks have been ignored because the valid value for parameter 'trise' could not be found in 'C1'.
    WARNING (CMI-2943): Parameter checks have been ignored because the valid value for parameter 'trise' could not be found in 'I0.R2.CM'.
    WARNING (CMI-2943): Parameter checks have been ignored because the valid value for parameter 'trise' could not be found in 'I0.R2.CS1'.
    WARNING (CMI-2943): Parameter checks have been ignored because the valid value for parameter 'trise' could not be found in 'I0.R2.CS0'.
    WARNING (CMI-2943): Parameter checks have been ignored because the valid value for parameter 'trise' could not be found in 'I0.C3.C1'.
        Further occurrences of this warning will be suppressed.

Convergence achieved in 12 iterations.
DC simulation time: CPU = 2.373 ms, elapsed = 2.37298 ms.
Important parameter values:
    start = 0 s
    outputstart = 0 s
    stop = 50 s
    step = 50 ms
    maxstep = 500 ms
    ic = all
    useprevic = no
    skipdc = no
    reltol = 10e-06
    abstol(V) = 1 uV
    abstol(I) = 1 pA
    temp = 27 C
    tnom = 27 C
    tempeffects = all
    errpreset = conservative
    method = gear2only
    lteratio = 10
    relref = alllocal
    cmin = 0 F
    gmin = 1 pS
    rabsshort = 1 mOhm


Notice from spectre during transient analysis `tran', during Monte Carlo analysis `mc1'.
    Multithreading is disabled due to the size of the design being too small.


Output and IC/nodeset summary:
                 save   8       (current)
                 save   87      (voltage)

    tran: time = 1.295 s     (2.59 %), step = 88.81 ms     (178 m%)
    tran: time = 3.846 s     (7.69 %), step = 334.8 ms     (670 m%)
    tran: time = 6.528 s     (13.1 %), step = 500 ms          (1 %)
    tran: time = 9.028 s     (18.1 %), step = 500 ms          (1 %)
    tran: time = 11.53 s     (23.1 %), step = 500 ms          (1 %)
    tran: time = 14.03 s     (28.1 %), step = 500 ms          (1 %)
    tran: time = 16.53 s     (33.1 %), step = 500 ms          (1 %)
    tran: time = 19.03 s     (38.1 %), step = 500 ms          (1 %)
    tran: time = 21.53 s     (43.1 %), step = 500 ms          (1 %)
    tran: time = 24.03 s     (48.1 %), step = 500 ms          (1 %)
    tran: time = 26.53 s     (53.1 %), step = 500 ms          (1 %)
    tran: time = 29.03 s     (58.1 %), step = 500 ms          (1 %)
    tran: time = 31.53 s     (63.1 %), step = 500 ms          (1 %)
    tran: time = 34.03 s     (68.1 %), step = 500 ms          (1 %)
    tran: time = 36.53 s     (73.1 %), step = 500 ms          (1 %)
    tran: time = 39.03 s     (78.1 %), step = 500 ms          (1 %)
    tran: time = 41.53 s     (83.1 %), step = 500 ms          (1 %)
    tran: time = 44.03 s     (88.1 %), step = 500 ms          (1 %)
    tran: time = 46.53 s     (93.1 %), step = 500 ms          (1 %)
    tran: time = 49.03 s     (98.1 %), step = 500 ms          (1 %)
Number of accepted tran steps =             733

Maximum value achieved for any signal of each quantity: 
V: V(S<0>) = 3.3 V
I: I(V8:p) = 6.457 uA

~~~~~~~~~~~~~~~~~~~~~~~~~~~~~~~~~
Post-Transient Simulation Summary
~~~~~~~~~~~~~~~~~~~~~~~~~~~~~~~~~
   -   To further speed up simulation, consider
          add ++aps on command line
   -   Non-default settings that could significantly slow down simulation
          errpreset = conservative, default moderate
          reltol = 10e-06, default 100e-06 (conservative)
~~~~~~~~~~~~~~~~~~~~~~~~~~~~~~~~~


During simulation, the CPU load for active processors is :
         0 (49.0 %)      1 (44.1 %)      2 (35.4 %)      3 (18.2 %)
         4 (24.1 %)      5 (25.7 %)      6 (23.9 %)      7 (56.7 %)
         8 (76.3 %)      9 (15.6 %)     10 (27.2 %)     11 (45.6 %)
        12 (35.2 %)     13 (29.4 %)     14 (24.8 %)     15 (36.0 %)
        16 (22.7 %)     17 (36.4 %)     18 (50.9 %)     19 (34.7 %)
        20 (65.4 %)     21 (30.6 %)     22 (29.1 %)     23 (26.2 %)
        24 (40.7 %)     25 (29.1 %)     26 (25.8 %)     27 (51.1 %)
        28 (38.0 %)     29 (35.1 %)     30 (35.4 %)     31 (16.1 %)
        32 (25.4 %)     33 (31.3 %)     34 (38.2 %)     35 (35.6 %)
        36 (27.1 %)     37 (23.3 %)     38 (17.7 %)     39 (79.2 %)
        40 (56.5 %)     41 (29.7 %)     42 (13.7 %)     43 (30.6 %)
        44 (34.1 %)     45 (21.7 %)     46 (45.2 %)     47 (22.1 %)
        Total: 1665.9%
Initial condition solution time: CPU = 2.428 ms, elapsed = 2.4302 ms.
Intrinsic tran analysis time:    CPU = 405.39 ms, elapsed = 406.632 ms.
Total time required for tran analysis `tran': CPU = 410.051 ms, elapsed = 411.923 ms, util. = 99.5%.
Time accumulated: CPU = 48.8002 s, elapsed = 50.8999 s.
Peak resident memory used = 214 Mbytes.


Notice from spectre during transient analysis `tran', during Monte Carlo analysis `mc1'.
    34 warnings suppressed.

finalTimeOP: writing operating point information to rawfile.

Opening the PSF file ../psf/mc1_separate/099/finalTimeOP.info ...
modelParameter: writing model parameter values to rawfile.

Opening the PSF file ../psf/mc1_separate/099/modelParameter.info ...
element: writing instance parameter values to rawfile.

Opening the PSF file ../psf/mc1_separate/099/element.info ...
outputParameter: writing output parameter values to rawfile.

Opening the PSF file ../psf/mc1_separate/099/outputParameter.info ...
designParamVals: writing netlist parameters to rawfile.

Opening the PSFASCII file ../psf/mc1_separate/099/designParamVals.info ...
primitives: writing primitives to rawfile.

Opening the PSFASCII file ../psf/mc1_separate/099/primitives.info.primitives ...
subckts: writing subcircuits to rawfile.

Opening the PSFASCII file ../psf/mc1_separate/099/subckts.info.subckts ...
    mc1: iteration = 99            (99 %), step = 1            (1.01 %)
100 100.00% 

*****************************************************************************************
* 
* INFO: AMS_processOption = C35B4C3
* 
* INFO: Valid Modules  PIP VG5 HIRES
* 
*****************************************************************************************


Notice from spectre during Monte Carlo analysis `mc1'.
    V8: `period' has the unusually large value of 100 s.


***********************************************
Transient Analysis `tran': time = (0 s -> 50 s)
***********************************************

Opening the PSF file ../psf/mc1_separate/100/tran.tran.tran ...

Warning from spectre during check, during IC analysis, during transient analysis `tran', during Monte Carlo analysis `mc1'.
    WARNING (CMI-2943): Parameter checks have been ignored because the valid value for parameter 'trise' could not be found in 'C1'.
    WARNING (CMI-2943): Parameter checks have been ignored because the valid value for parameter 'trise' could not be found in 'I0.R2.CM'.
    WARNING (CMI-2943): Parameter checks have been ignored because the valid value for parameter 'trise' could not be found in 'I0.R2.CS1'.
    WARNING (CMI-2943): Parameter checks have been ignored because the valid value for parameter 'trise' could not be found in 'I0.R2.CS0'.
    WARNING (CMI-2943): Parameter checks have been ignored because the valid value for parameter 'trise' could not be found in 'I0.C3.C1'.
        Further occurrences of this warning will be suppressed.

Convergence achieved in 12 iterations.
DC simulation time: CPU = 2.289 ms, elapsed = 2.29502 ms.
Important parameter values:
    start = 0 s
    outputstart = 0 s
    stop = 50 s
    step = 50 ms
    maxstep = 500 ms
    ic = all
    useprevic = no
    skipdc = no
    reltol = 10e-06
    abstol(V) = 1 uV
    abstol(I) = 1 pA
    temp = 27 C
    tnom = 27 C
    tempeffects = all
    errpreset = conservative
    method = gear2only
    lteratio = 10
    relref = alllocal
    cmin = 0 F
    gmin = 1 pS
    rabsshort = 1 mOhm


Notice from spectre during transient analysis `tran', during Monte Carlo analysis `mc1'.
    Multithreading is disabled due to the size of the design being too small.


Output and IC/nodeset summary:
                 save   8       (current)
                 save   87      (voltage)

    tran: time = 1.295 s     (2.59 %), step = 88.81 ms     (178 m%)
    tran: time = 3.846 s     (7.69 %), step = 334.8 ms     (670 m%)
    tran: time = 6.528 s     (13.1 %), step = 500 ms          (1 %)
    tran: time = 9.028 s     (18.1 %), step = 500 ms          (1 %)
    tran: time = 11.53 s     (23.1 %), step = 500 ms          (1 %)
    tran: time = 14.03 s     (28.1 %), step = 500 ms          (1 %)
    tran: time = 16.53 s     (33.1 %), step = 500 ms          (1 %)
    tran: time = 19.03 s     (38.1 %), step = 500 ms          (1 %)
    tran: time = 21.53 s     (43.1 %), step = 500 ms          (1 %)
    tran: time = 24.03 s     (48.1 %), step = 500 ms          (1 %)
    tran: time = 26.53 s     (53.1 %), step = 500 ms          (1 %)
    tran: time = 29.03 s     (58.1 %), step = 500 ms          (1 %)
    tran: time = 31.53 s     (63.1 %), step = 500 ms          (1 %)
    tran: time = 34.03 s     (68.1 %), step = 500 ms          (1 %)
    tran: time = 36.53 s     (73.1 %), step = 500 ms          (1 %)
    tran: time = 39.03 s     (78.1 %), step = 500 ms          (1 %)
    tran: time = 41.53 s     (83.1 %), step = 500 ms          (1 %)
    tran: time = 44.03 s     (88.1 %), step = 500 ms          (1 %)
    tran: time = 46.53 s     (93.1 %), step = 500 ms          (1 %)
    tran: time = 49.03 s     (98.1 %), step = 500 ms          (1 %)
Number of accepted tran steps =             733

Maximum value achieved for any signal of each quantity: 
V: V(S<0>) = 3.3 V
I: I(V8:p) = 6.457 uA

~~~~~~~~~~~~~~~~~~~~~~~~~~~~~~~~~
Post-Transient Simulation Summary
~~~~~~~~~~~~~~~~~~~~~~~~~~~~~~~~~
   -   To further speed up simulation, consider
          add ++aps on command line
   -   Non-default settings that could significantly slow down simulation
          errpreset = conservative, default moderate
          reltol = 10e-06, default 100e-06 (conservative)
~~~~~~~~~~~~~~~~~~~~~~~~~~~~~~~~~


During simulation, the CPU load for active processors is :
         0 (49.5 %)      1 (43.9 %)      2 (35.1 %)      3 (18.8 %)
         4 (24.1 %)      5 (25.9 %)      6 (23.7 %)      7 (56.2 %)
         8 (76.5 %)      9 (16.2 %)     10 (27.0 %)     11 (45.7 %)
        12 (35.0 %)     13 (29.8 %)     14 (25.5 %)     15 (36.5 %)
        16 (23.2 %)     17 (36.4 %)     18 (51.3 %)     19 (34.6 %)
        20 (64.8 %)     21 (31.1 %)     22 (29.1 %)     23 (26.0 %)
        24 (41.2 %)     25 (29.0 %)     26 (26.0 %)     27 (51.6 %)
        28 (37.9 %)     29 (35.7 %)     30 (35.2 %)     31 (16.4 %)
        32 (25.3 %)     33 (31.1 %)     34 (37.9 %)     35 (36.1 %)
        36 (27.0 %)     37 (24.0 %)     38 (17.6 %)     39 (79.4 %)
        40 (56.1 %)     41 (30.0 %)     42 (13.7 %)     43 (30.3 %)
        44 (33.9 %)     45 (22.3 %)     46 (44.9 %)     47 (22.8 %)
        Total: 1671.4%
Initial condition solution time: CPU = 2.33 ms, elapsed = 2.33817 ms.
Intrinsic tran analysis time:    CPU = 404.882 ms, elapsed = 406.224 ms.
Total time required for tran analysis `tran': CPU = 410.201 ms, elapsed = 412.412 ms, util. = 99.5%.
Time accumulated: CPU = 49.2503 s, elapsed = 51.3627 s.
Peak resident memory used = 214 Mbytes.


Notice from spectre during transient analysis `tran', during Monte Carlo analysis `mc1'.
    34 warnings suppressed.

finalTimeOP: writing operating point information to rawfile.

Opening the PSF file ../psf/mc1_separate/100/finalTimeOP.info ...
modelParameter: writing model parameter values to rawfile.

Opening the PSF file ../psf/mc1_separate/100/modelParameter.info ...
element: writing instance parameter values to rawfile.

Opening the PSF file ../psf/mc1_separate/100/element.info ...
outputParameter: writing output parameter values to rawfile.

Opening the PSF file ../psf/mc1_separate/100/outputParameter.info ...
designParamVals: writing netlist parameters to rawfile.

Opening the PSFASCII file ../psf/mc1_separate/100/designParamVals.info ...
primitives: writing primitives to rawfile.

Opening the PSFASCII file ../psf/mc1_separate/100/primitives.info.primitives ...
subckts: writing subcircuits to rawfile.

Opening the PSFASCII file ../psf/mc1_separate/100/subckts.info.subckts ...
    mc1: iteration = 100          (100 %), step = 1            (1.01 %)
Total time required for montecarlo analysis `mc1': CPU = 48.8126 s, elapsed = 50.3621 s, util. = 96.9%.
Time accumulated: CPU = 49.2766 s, elapsed = 51.4015 s.
Peak resident memory used = 214 Mbytes.

Licensing Information:
Lic Summary:
[09:34:48.397032] Cdslmd servers:3000@lic08.ug.kth.se:29000@lic06.ug.kth.se
[09:34:48.397064] Feature usage summary:
[09:34:48.397065] Virtuoso_Multi_mode_Simulation


Aggregate audit (9:34:48 AM, Thur Apr 16, 2026):
Time used: CPU = 49.3 s, elapsed = 51.4 s, util. = 95.9%.
Time spent in licensing: elapsed = 87.1 ms.
Peak memory used = 215 Mbytes.
Simulation started at: 9:33:56 AM, Thur Apr 16, 2026, ended at: 9:34:48 AM, Thur Apr 16, 2026, with elapsed time (wall clock): 51.4 s.
spectre completes with 0 errors, 522 warnings, and 310 notices.
