
Spectre (R) Circuit Simulator
Version 24.1.0.288.isr5 64bit -- 3 Apr 2025
Copyright (C) 1989-2025 Cadence Design Systems, Inc. All rights reserved worldwide. Cadence and Spectre are registered trademarks of Cadence Design Systems, Inc. All others are the property of their respective holders.

Includes RSA BSAFE(R) Cryptographic or Security Protocol Software from RSA Security, Inc.

User: davidevi   Host: il2244vt26_davidevi   HostID: 11AC2C00   PID: 1026157
Memory  available: 3.0261 TB  physical: 3.2467 TB
Linux   : Rocky Linux release 8.10 (Green Obsidian)
CPU Type: Intel(R) Xeon(R) CPU E7-8857 v2 @ 3.00GHz
        Socket: Processors [Frequency]
        0:       0 [2999.9],  1 [1200.0],  2 [1200.0],  3 [2800.0],  4 [1200.0]
                 5 [2999.9],  6 [2900.0],  7 [3000.0],  8 [2900.0],  9 [1200.0]
                10 [1200.0], 11 [1200.0]
        1:      12 [3300.0], 13 [1200.0], 14 [2600.0], 15 [1200.0], 16 [1200.0]
                17 [1200.0], 18 [1200.0], 19 [3490.7], 20 [1200.0], 21 [1200.0]
                22 [1800.0], 23 [1200.0]
        2:      24 [1200.0], 25 [3600.0], 26 [1200.0], 27 [1200.0], 28 [1200.0]
                29 [3436.6], 30 [1200.0], 31 [1200.0], 32 [3399.9], 33 [2600.0]
                34 [1200.0], 35 [3436.6]
        3:      36 [3431.4], 37 [1200.0], 38 [1200.0], 39 [1200.0], 40 [1200.0]
                41 [1200.0], 42 [1200.0], 43 [1200.0], 44 [1200.0], 45 [1200.0]
                46 [1200.0], 47 [3432.0]
        
System load averages (1min, 5min, 15min) : 29.9 %, 25.6 %, 24.9 %
HPC is enabled


Simulating `input.scs' on il2244vt26_davidevi at 4:51:43 PM, Wed Apr 15, 2026 (process id: 1026157).
Current working directory: /home/davidevi/Desktop/myproject/Sim/VGA/VGA_1_wakeup_tb/adexl/results/data/MonteCarlo.0/13/wakeup/groupRunDataDir/netlist
Command line:
    /opt/tools/cadence/installs/SPECTRE241/tools/bin/spectre -64  \
        input.scs +escchars +log ../psf/spectre.out -format psfbin  \
        +rtsf -raw ../psf +aps +mt +lqtimeout 900 -maxw 5 -maxn 5  \
        +param /opt/pdk/ams/410/spectre/ams_range.lmts -env ade  \
        -ahdllibdir  \
        /home/davidevi/Desktop/myproject/Sim/VGA/VGA_1_wakeup_tb/adexl/results/data/MonteCarlo.0/sharedData/Job458/ahdl/input.ahdlSimDB  \
        +logstatus  \
        +adespetkn=0001089D13A302B663E41FB550AF0DF415A679A322D5069144BF588C12F604E07EF416DC01A319B562BB63D358DC1E9545A379974AF311B406EF38C742CB4F9206CD79D15D9175FF34986BDD0AF002BA50FD7FD707E002A700AC1C821CFF42E20EAF79D118F874D3349879D118F874D33498100EDAE6B6CD5D47000036B5

Simulation Id: jF7l212wegarsC2U
Licensing Information:
[16:51:43.121762] Configured Lic search path (24.01-s002): 3000@lic08.ug.kth.se:29000@lic06.ug.kth.se

Licensing Information:
[16:51:43.258449] Periodic Lic check successful

Loading /opt/tools/cadence/installs/SPECTRE241/tools.lnx86/cmi/lib/64bit/5.0/libinfineon_sh.so ...
Loading /opt/tools/cadence/installs/SPECTRE241/tools.lnx86/cmi/lib/64bit/5.0/libphilips_I_sh.so ...
Loading /opt/tools/cadence/installs/SPECTRE241/tools.lnx86/cmi/lib/64bit/5.0/libphilips_sh.so ...
Loading /opt/tools/cadence/installs/SPECTRE241/tools.lnx86/cmi/lib/64bit/5.0/libsparam_sh.so ...
Loading /opt/tools/cadence/installs/SPECTRE241/tools.lnx86/cmi/lib/64bit/5.0/libstmodels_sh.so ...

Warning from spectre.
    WARNING (SPECTRE-691): This CPU processor does not support x86 advanced vector extensions instructions. This may affect math operations and slow down the simulation.

Reading file:  /home/davidevi/Desktop/myproject/Sim/VGA/VGA_1_wakeup_tb/adexl/results/data/MonteCarlo.0/13/wakeup/groupRunDataDir/netlist/input.scs
Reading file:  /opt/pdk/ams/410/spectre/ams_range.lmts

Warning from spectre during read of parameter soft limits file `/opt/pdk/ams/410/spectre/ams_range.lmts', during circuit read-in.
    WARNING (SPECTRE-8360): line 1511: `ac' is an undefined primitive device.
    WARNING (SPECTRE-8360): line 1512: `ac' is an undefined primitive device.
    WARNING (SPECTRE-8360): line 1513: `ac' is an undefined primitive device.
    WARNING (SPECTRE-8360): line 1514: `ac' is an undefined primitive device.
    WARNING (SPECTRE-8360): line 1515: `ac' is an undefined primitive device.
        Further occurrences of this warning will be suppressed.

Reading file:  /opt/tools/cadence/installs/SPECTRE241/tools.lnx86/spectre/etc/configs/spectre.cfg
Reading file:  /opt/pdk/ams/410/spectre/c35/soac/soac.scs
Reading file:  /opt/pdk/ams/410/spectre/c35/soac/processOption.scs
Reading file:  /opt/pdk/ams/410/spectre/c35/soac/process.scs
Reading file:  /opt/pdk/ams/410/spectre/c35/soac/soac.va

Warning from spectre during AHDL read-in.
    WARNING (VACOMP-2435): The environment variable CDS_AHDLCMI_ENABLE is no longer supported. Therefore, the simulator will use the default compiled C code flow.

Reading link:  /opt/tools/cadence/installs/SPECTRE241/tools.lnx86/spectre/etc/ahdl/constants.h
Reading file:  /opt/tools/cadence/installs/SPECTRE241/tools.lnx86/spectre/etc/ahdl/constants.vams
Reading link:  /opt/tools/cadence/installs/SPECTRE241/tools.lnx86/spectre/etc/ahdl/discipline.h
Reading file:  /opt/tools/cadence/installs/SPECTRE241/tools.lnx86/spectre/etc/ahdl/disciplines.vams
Reading file:  /opt/pdk/ams/410/spectre/c35/processOption/C35B4C3.scs
Reading file:  /opt/pdk/ams/410/spectre/c35/soac/cmos53.scs
Reading file:  /opt/pdk/ams/410/spectre/c35/soac/res.scs
Reading file:  /opt/pdk/ams/410/spectre/c35/soac/cap.scs
Reading file:  /opt/pdk/ams/410/spectre/c35/soac/bip.scs
Reading file:  /opt/pdk/ams/410/spectre/c35/soac/ind.scs
Reading file:  /opt/pdk/ams/410/spectre/c35/soac/esddiode.scs
Time for NDB Parsing: CPU = 172.963 ms, elapsed = 349.736 ms.
Time accumulated: CPU = 356.931 ms, elapsed = 349.738 ms.
Peak resident memory used = 175 Mbytes.

Existing shared object for module modn_ahdl is up to date.
Installed compiled interface for modn_ahdl.
Existing shared object for module modp_ahdl is up to date.
Installed compiled interface for modp_ahdl.
Existing shared object for module cpoly_ahdl is up to date.
Installed compiled interface for cpoly_ahdl.
Existing shared object for module rpolyh_ahdl is up to date.
Installed compiled interface for rpolyh_ahdl.
Existing shared object for module bsource_19b458 is up to date.
Installed compiled interface for bsource_19b458.
Time for Elaboration: CPU = 62.599 ms, elapsed = 65.033 ms.
Time accumulated: CPU = 419.739 ms, elapsed = 414.979 ms.
Peak resident memory used = 188 Mbytes.


Notice from spectre during hierarchy flattening.
    The value 'psf' specified for the 'checklimitdest' option will no longer be supported in future releases. Use 'spectre -h' to see other recommended values for the 'checklimitdest' option.


*****************************************************************************************
* 
* INFO: AMS_processOption = C35B4C3
* 
* INFO: Valid Modules  PIP VG5 HIRES
* 
*****************************************************************************************


Notice from spectre during hierarchy flattening.
    V8: `period' has the unusually large value of 100 s.


Time for EDB Visiting: CPU = 8.937 ms, elapsed = 8.93712 ms.
Time accumulated: CPU = 428.845 ms, elapsed = 424.085 ms.
Peak resident memory used = 191 Mbytes.

Loading /opt/tools/cadence/installs/SPECTRE241/tools.lnx86/mdl/lib/64bit/libSpectreEH_sh.so ...

Warning from spectre during initial setup.
    WARNING (SPECTRE-16460): SOAC_cvarm_vspsub:Specified subcircuit master `cvarm' was not found.
    WARNING (SPECTRE-16462): SOAC_cvarm_vspsub:Error in specification of subcircuit master. Assert is ignored.
    WARNING (SPECTRE-16460): SOAC_cvarm_vbs:Specified subcircuit master `cvarm' was not found.
    WARNING (SPECTRE-16462): SOAC_cvarm_vbs:Error in specification of subcircuit master. Assert is ignored.
    WARNING (SPECTRE-16460): SOAC_cvarm_vgb:Specified subcircuit master `cvarm' was not found.
    WARNING (SPECTRE-16462): SOAC_cvarm_vgb:Error in specification of subcircuit master. Assert is ignored.
    WARNING (SPECTRE-16460): SOAC_cvart_vspsub:Specified subcircuit master `cvart' was not found.
    WARNING (SPECTRE-16462): SOAC_cvart_vspsub:Error in specification of subcircuit master. Assert is ignored.
    WARNING (SPECTRE-16460): SOAC_cvart_vbs:Specified subcircuit master `cvart' was not found.
        Further occurrences of this warning will be suppressed.
    WARNING (SPECTRE-16462): SOAC_cvart_vbs:Error in specification of subcircuit master. Assert is ignored.
        Further occurrences of this warning will be suppressed.
Notice from spectre during topology check.
    Only one connection to the following 54 nodes:
        I0.MN6.psub!
        I0.MN5.psub!
        I0.MN4.psub!
        I0.MN3.psub!
        I0.MN2.psub!
        Further occurrences of this notice will be suppressed.
Notice from spectre during initial setup.
    Multithreading is disabled due to the size of the design being too small.


Netlist title:
        // Point Netlist Generated on: Apr 15 16:51:43 2026


Global user options:
         psfversion = 1.4.0
            vabstol = 1e-06
            iabstol = 1e-12
               temp = 85
           homotopy = 5
              limit = delta
         compatible = spice2
               gmin = 1e-12
             rforce = 1
           maxnotes = 5
           maxwarns = 5
             digits = 5
               cols = 80
             pivrel = 0.001
           sensfile = ../psf/sens.output
     checklimitdest = psf
     enable_pre_ver = yes
      ignorezerovar = yes
               save = allpub
             reltol = 0.0001
               tnom = 27
             scalem = 1
              scale = 1

Scoped user options:

Circuit inventory:
              nodes 88
            bsim3v3 35    
     bsource_19b458 2     
          capacitor 38    
         cpoly_ahdl 17    
            isource 1     
          modn_ahdl 19    
          modp_ahdl 16    
           resistor 1     
        rpolyh_ahdl 2     
            vsource 8     

Analysis and control statement inventory:
               info 7     
         montecarlo 1     
               tran 1     

Output statements:
             .probe 0     
           .measure 0     
               save 0     

Design checks inventory:
          paramtest 55    
             assert 175   


Notice from spectre during initial setup.
    APS enabled.
    1 notice suppressed.
    72 warnings suppressed.

Time for parsing: CPU = 19.95 ms, elapsed = 643.015 ms.
Time accumulated: CPU = 448.904 ms, elapsed = 1.06721 s.
Peak resident memory used = 198 Mbytes.

~~~~~~~~~~~~~~~~~~~~~~
Pre-Simulation Summary
~~~~~~~~~~~~~~~~~~~~~~
   -   (APS) Multi-threading. The recommended number of threads is 1, consider adding +mt=1 on command line.
~~~~~~~~~~~~~~~~~~~~~~

**************************************************
Monte Carlo Analysis `mc1': iteration = (1 -> 100)
**************************************************
Important parameter values:
    seed = 12345
    sampling = lds
    variations = all
    firstrun = 1
    numruns = 100
    nullmfactorcorrelation = no
    donominal = yes
    method = standard

**** Performing nominal run for `mc1'

Notice from spectre during transient analysis `tran', during Monte Carlo analysis `mc1'.
    No checklimit analysis defined for asserts. A default checklimit analysis 'SpectreChecklimitAnal' has been created with all asserts enabled.


***********************************************
Transient Analysis `tran': time = (0 s -> 50 s)
***********************************************

Warning from spectre during check, during IC analysis, during transient analysis `tran', during Monte Carlo analysis `mc1'.
    WARNING (CMI-2943): Parameter checks have been ignored because the valid value for parameter 'trise' could not be found in 'C1'.
    WARNING (CMI-2943): Parameter checks have been ignored because the valid value for parameter 'trise' could not be found in 'I0.R2.CM'.
    WARNING (CMI-2943): Parameter checks have been ignored because the valid value for parameter 'trise' could not be found in 'I0.R2.CS1'.
    WARNING (CMI-2943): Parameter checks have been ignored because the valid value for parameter 'trise' could not be found in 'I0.R2.CS0'.
    WARNING (CMI-2943): Parameter checks have been ignored because the valid value for parameter 'trise' could not be found in 'I0.C3.C1'.
        Further occurrences of this warning will be suppressed.

Convergence achieved in 12 iterations.
DC simulation time: CPU = 3.081 ms, elapsed = 3.08204 ms.

Opening the PSF file ../psf/nom/tran.tran.tran ...
Important parameter values:
    start = 0 s
    outputstart = 0 s
    stop = 50 s
    step = 50 ms
    maxstep = 500 ms
    ic = all
    useprevic = no
    skipdc = no
    reltol = 10e-06
    abstol(V) = 1 uV
    abstol(I) = 1 pA
    temp = 85 C
    tnom = 27 C
    tempeffects = all
    errpreset = conservative
    method = gear2only
    lteratio = 10
    relref = alllocal
    cmin = 0 F
    gmin = 1 pS
    rabsshort = 1 mOhm


Notice from spectre during transient analysis `tran', during Monte Carlo analysis `mc1'.
    Multithreading is disabled due to the size of the design being too small.


Output and IC/nodeset summary:
                 save   8       (current)
                 save   87      (voltage)

    tran: time = 1.445 s     (2.89 %), step = 500 ms          (1 %)
    tran: time = 3.945 s     (7.89 %), step = 500 ms          (1 %)
    tran: time = 6.445 s     (12.9 %), step = 500 ms          (1 %)
    tran: time = 8.945 s     (17.9 %), step = 500 ms          (1 %)
    tran: time = 11.44 s     (22.9 %), step = 500 ms          (1 %)
    tran: time = 13.94 s     (27.9 %), step = 500 ms          (1 %)
    tran: time = 16.44 s     (32.9 %), step = 500 ms          (1 %)
    tran: time = 18.94 s     (37.9 %), step = 500 ms          (1 %)
    tran: time = 21.44 s     (42.9 %), step = 500 ms          (1 %)
    tran: time = 23.94 s     (47.9 %), step = 500 ms          (1 %)
    tran: time = 26.44 s     (52.9 %), step = 500 ms          (1 %)
    tran: time = 28.94 s     (57.9 %), step = 500 ms          (1 %)
    tran: time = 31.44 s     (62.9 %), step = 500 ms          (1 %)
    tran: time = 33.94 s     (67.9 %), step = 500 ms          (1 %)
    tran: time = 36.44 s     (72.9 %), step = 500 ms          (1 %)
    tran: time = 38.94 s     (77.9 %), step = 500 ms          (1 %)
    tran: time = 41.44 s     (82.9 %), step = 500 ms          (1 %)
    tran: time = 43.94 s     (87.9 %), step = 500 ms          (1 %)
    tran: time = 46.44 s     (92.9 %), step = 500 ms          (1 %)
    tran: time = 48.94 s     (97.9 %), step = 500 ms          (1 %)
Number of accepted tran steps =             680

Maximum value achieved for any signal of each quantity: 
V: V(S<0>) = 3.3 V
I: I(V8:p) = 7.296 uA
Maximum value of each quantity, excluding Verilog-A modules or dangling current sources:
V: V(vout_filt) = 3.211 V
I: I(V8:p) = 7.296 uA

~~~~~~~~~~~~~~~~~~~~~~~~~~~~~~~~~
Post-Transient Simulation Summary
~~~~~~~~~~~~~~~~~~~~~~~~~~~~~~~~~
   -   To further speed up simulation, consider
          add ++aps on command line
   -   Non-default settings that could significantly slow down simulation
          errpreset = conservative, default moderate
          reltol = 10e-06, default 100e-06 (conservative)
~~~~~~~~~~~~~~~~~~~~~~~~~~~~~~~~~


During simulation, the CPU load for active processors is :
         0 (34.5 %)      1 (30.2 %)      2 (5.0 %)       3 (5.8 %)
         4 (3.6 %)       5 (100.0 %)     6 (4.3 %)       7 (21.1 %)
         8 (12.5 %)      9 (10.1 %)     10 (7.8 %)      11 (3.5 %)
        12 (30.7 %)     13 (6.4 %)      14 (7.8 %)      15 (4.3 %)
        16 (15.6 %)     17 (20.6 %)     18 (7.7 %)      19 (91.5 %)
        20 (5.8 %)      21 (2.8 %)      22 (2.8 %)      23 (2.9 %)
        24 (3.6 %)      26 (1.4 %)      27 (2.1 %)      29 (100.0 %)
        30 (1.4 %)      31 (19.7 %)     32 (5.0 %)      33 (2.9 %)
        34 (2.9 %)      35 (94.4 %)     36 (92.4 %)     37 (4.3 %)
        38 (1.4 %)      39 (12.1 %)     40 (2.9 %)      41 (4.9 %)
        42 (3.6 %)      43 (4.3 %)      45 (7.1 %)      47 (100.0 %)
        Total: 905.1%
Initial condition solution time: CPU = 3.127 ms, elapsed = 3.12805 ms.
Intrinsic tran analysis time:    CPU = 405.701 ms, elapsed = 407.195 ms.
Total time required for tran analysis `tran': CPU = 491.523 ms, elapsed = 496.764 ms, util. = 98.9%.
Time accumulated: CPU = 966.935 ms, elapsed = 1.59188 s.
Peak resident memory used = 209 Mbytes.


Notice from spectre during transient analysis `tran', during Monte Carlo analysis `mc1'.
    34 warnings suppressed.

finalTimeOP: writing operating point information to rawfile.

Opening the PSF file ../psf/nom/finalTimeOP.info ...
modelParameter: writing model parameter values to rawfile.

Opening the PSF file ../psf/nom/modelParameter.info ...
element: writing instance parameter values to rawfile.

Opening the PSF file ../psf/nom/element.info ...
outputParameter: writing output parameter values to rawfile.

Opening the PSF file ../psf/nom/outputParameter.info ...
designParamVals: writing netlist parameters to rawfile.

Opening the PSFASCII file ../psf/nom/designParamVals.info ...
primitives: writing primitives to rawfile.

Opening the PSFASCII file ../psf/nom/primitives.info.primitives ...
subckts: writing subcircuits to rawfile.

Opening the PSFASCII file ../psf/nom/subckts.info.subckts ...
Opening iteration number and data-directory mapping file:  /home/davidevi/Desktop/myproject/Sim/VGA/VGA_1_wakeup_tb/adexl/results/data/MonteCarlo.0/13/wakeup/groupRunDataDir/netlist/../psf/mc1.mapping

Statistical parameters:
    Defined process parameters: 629
    Defined mismatch parameters (subckt based): 86
    Non-referenced mismatch parameters: 80
    Number of random variables: 718
    Gaussian truncation for process parameters: 4.00 sigma
    Gaussian truncation for mismatch parameters: 4.00 sigma


Opening the PSF file ../psf/mc1_tran.montecarlo ...

Opening the PSF file ../psf/mc1_finalTimeOP.montecarlo ...

Opening the PSF file ../psf/mc1_modelParameter.montecarlo ...

Opening the PSF file ../psf/mc1_element.montecarlo ...

Opening the PSF file ../psf/mc1_outputParameter.montecarlo ...

Opening the PSF file ../psf/mc1_designParamVals.montecarlo ...

Opening the PSF file ../psf/mc1_primitives.montecarlo ...

Opening the PSF file ../psf/mc1_subckts.montecarlo ...

**** Performing monte carlo loop for `mc1'

1   0.00% 

*****************************************************************************************
* 
* INFO: AMS_processOption = C35B4C3
* 
* INFO: Valid Modules  PIP VG5 HIRES
* 
*****************************************************************************************


Notice from spectre at iteration = 1 during Monte Carlo analysis `mc1'.
    V8: `period' has the unusually large value of 100 s.


***********************************************
Transient Analysis `tran': time = (0 s -> 50 s)
***********************************************

Opening the PSF file ../psf/mc1_separate/001/tran.tran.tran ...

Warning from spectre at iteration = 1 during check, during IC analysis, during transient analysis `tran', during Monte Carlo analysis `mc1'.
    WARNING (CMI-2943): Parameter checks have been ignored because the valid value for parameter 'trise' could not be found in 'C1'.
    WARNING (CMI-2943): Parameter checks have been ignored because the valid value for parameter 'trise' could not be found in 'I0.R2.CM'.
    WARNING (CMI-2943): Parameter checks have been ignored because the valid value for parameter 'trise' could not be found in 'I0.R2.CS1'.
    WARNING (CMI-2943): Parameter checks have been ignored because the valid value for parameter 'trise' could not be found in 'I0.R2.CS0'.
    WARNING (CMI-2943): Parameter checks have been ignored because the valid value for parameter 'trise' could not be found in 'I0.C3.C1'.
        Further occurrences of this warning will be suppressed.

Convergence achieved in 12 iterations.
DC simulation time: CPU = 2.866 ms, elapsed = 2.86698 ms.
Important parameter values:
    start = 0 s
    outputstart = 0 s
    stop = 50 s
    step = 50 ms
    maxstep = 500 ms
    ic = all
    useprevic = no
    skipdc = no
    reltol = 10e-06
    abstol(V) = 1 uV
    abstol(I) = 1 pA
    temp = 85 C
    tnom = 27 C
    tempeffects = all
    errpreset = conservative
    method = gear2only
    lteratio = 10
    relref = alllocal
    cmin = 0 F
    gmin = 1 pS
    rabsshort = 1 mOhm


Notice from spectre at iteration = 1 during transient analysis `tran', during Monte Carlo analysis `mc1'.
    Multithreading is disabled due to the size of the design being too small.


Output and IC/nodeset summary:
                 save   8       (current)
                 save   87      (voltage)

    tran: time = 1.61 s      (3.22 %), step = 500 ms          (1 %)
    tran: time = 4.11 s      (8.22 %), step = 500 ms          (1 %)
    tran: time = 6.61 s      (13.2 %), step = 500 ms          (1 %)
    tran: time = 9.11 s      (18.2 %), step = 500 ms          (1 %)
    tran: time = 11.61 s     (23.2 %), step = 500 ms          (1 %)
    tran: time = 14.11 s     (28.2 %), step = 500 ms          (1 %)
    tran: time = 16.61 s     (33.2 %), step = 500 ms          (1 %)
    tran: time = 19.11 s     (38.2 %), step = 500 ms          (1 %)
    tran: time = 21.61 s     (43.2 %), step = 500 ms          (1 %)
    tran: time = 24.11 s     (48.2 %), step = 500 ms          (1 %)
    tran: time = 26.61 s     (53.2 %), step = 500 ms          (1 %)
    tran: time = 29.11 s     (58.2 %), step = 500 ms          (1 %)
    tran: time = 31.61 s     (63.2 %), step = 500 ms          (1 %)
    tran: time = 34.11 s     (68.2 %), step = 500 ms          (1 %)
    tran: time = 36.61 s     (73.2 %), step = 500 ms          (1 %)
    tran: time = 39.11 s     (78.2 %), step = 500 ms          (1 %)
    tran: time = 41.61 s     (83.2 %), step = 500 ms          (1 %)
    tran: time = 44.11 s     (88.2 %), step = 500 ms          (1 %)
    tran: time = 46.61 s     (93.2 %), step = 500 ms          (1 %)
    tran: time = 49.11 s     (98.2 %), step = 500 ms          (1 %)
Number of accepted tran steps =             685

Maximum value achieved for any signal of each quantity: 
V: V(S<0>) = 3.3 V
I: I(V8:p) = 7.173 uA
Maximum value of each quantity, excluding Verilog-A modules or dangling current sources:
V: V(vout_filt) = 3.244 V
I: I(V8:p) = 7.173 uA

~~~~~~~~~~~~~~~~~~~~~~~~~~~~~~~~~
Post-Transient Simulation Summary
~~~~~~~~~~~~~~~~~~~~~~~~~~~~~~~~~
   -   To further speed up simulation, consider
          add ++aps on command line
   -   Non-default settings that could significantly slow down simulation
          errpreset = conservative, default moderate
          reltol = 10e-06, default 100e-06 (conservative)
~~~~~~~~~~~~~~~~~~~~~~~~~~~~~~~~~


During simulation, the CPU load for active processors is :
         0 (53.7 %)      1 (21.1 %)      2 (3.9 %)       3 (4.5 %)
         4 (3.0 %)       5 (100.0 %)     6 (3.5 %)       7 (14.8 %)
         8 (11.1 %)      9 (7.5 %)      10 (6.5 %)      11 (3.4 %)
        12 (22.7 %)     13 (6.4 %)      14 (5.9 %)      15 (3.5 %)
        16 (11.8 %)     17 (19.8 %)     18 (5.9 %)      19 (64.0 %)
        20 (35.3 %)     21 (2.0 %)      22 (3.4 %)      23 (3.9 %)
        24 (5.5 %)      26 (1.5 %)      27 (3.0 %)      28 (1.5 %)
        29 (100.0 %)    31 (19.2 %)     32 (4.0 %)      33 (2.5 %)
        34 (3.5 %)      35 (93.7 %)     36 (71.5 %)     37 (3.0 %)
        38 (11.3 %)     39 (8.9 %)      40 (2.5 %)      41 (6.8 %)
        42 (4.0 %)      43 (3.5 %)      44 (3.5 %)      45 (34.2 %)
        46 (1.5 %)      47 (93.7 %)     
        Total: 897.5%
Initial condition solution time: CPU = 2.937 ms, elapsed = 2.93994 ms.
Intrinsic tran analysis time:    CPU = 408.567 ms, elapsed = 410.623 ms.
Total time required for tran analysis `tran': CPU = 414.556 ms, elapsed = 417.174 ms, util. = 99.4%.
Time accumulated: CPU = 1.46615 s, elapsed = 2.11079 s.
Peak resident memory used = 213 Mbytes.


Notice from spectre during transient analysis `tran', during Monte Carlo analysis `mc1'.
    34 warnings suppressed.

finalTimeOP: writing operating point information to rawfile.

Opening the PSF file ../psf/mc1_separate/001/finalTimeOP.info ...
modelParameter: writing model parameter values to rawfile.

Opening the PSF file ../psf/mc1_separate/001/modelParameter.info ...
element: writing instance parameter values to rawfile.

Opening the PSF file ../psf/mc1_separate/001/element.info ...
outputParameter: writing output parameter values to rawfile.

Opening the PSF file ../psf/mc1_separate/001/outputParameter.info ...
designParamVals: writing netlist parameters to rawfile.

Opening the PSFASCII file ../psf/mc1_separate/001/designParamVals.info ...
primitives: writing primitives to rawfile.

Opening the PSFASCII file ../psf/mc1_separate/001/primitives.info.primitives ...
subckts: writing subcircuits to rawfile.

Opening the PSFASCII file ../psf/mc1_separate/001/subckts.info.subckts ...
2   1.01% 

*****************************************************************************************
* 
* INFO: AMS_processOption = C35B4C3
* 
* INFO: Valid Modules  PIP VG5 HIRES
* 
*****************************************************************************************


Notice from spectre during Monte Carlo analysis `mc1'.
    V8: `period' has the unusually large value of 100 s.


***********************************************
Transient Analysis `tran': time = (0 s -> 50 s)
***********************************************

Opening the PSF file ../psf/mc1_separate/002/tran.tran.tran ...

Warning from spectre during check, during IC analysis, during transient analysis `tran', during Monte Carlo analysis `mc1'.
    WARNING (CMI-2943): Parameter checks have been ignored because the valid value for parameter 'trise' could not be found in 'C1'.
    WARNING (CMI-2943): Parameter checks have been ignored because the valid value for parameter 'trise' could not be found in 'I0.R2.CM'.
    WARNING (CMI-2943): Parameter checks have been ignored because the valid value for parameter 'trise' could not be found in 'I0.R2.CS1'.
    WARNING (CMI-2943): Parameter checks have been ignored because the valid value for parameter 'trise' could not be found in 'I0.R2.CS0'.
    WARNING (CMI-2943): Parameter checks have been ignored because the valid value for parameter 'trise' could not be found in 'I0.C3.C1'.
        Further occurrences of this warning will be suppressed.

Convergence achieved in 12 iterations.
DC simulation time: CPU = 2.408 ms, elapsed = 2.40898 ms.
Important parameter values:
    start = 0 s
    outputstart = 0 s
    stop = 50 s
    step = 50 ms
    maxstep = 500 ms
    ic = all
    useprevic = no
    skipdc = no
    reltol = 10e-06
    abstol(V) = 1 uV
    abstol(I) = 1 pA
    temp = 85 C
    tnom = 27 C
    tempeffects = all
    errpreset = conservative
    method = gear2only
    lteratio = 10
    relref = alllocal
    cmin = 0 F
    gmin = 1 pS
    rabsshort = 1 mOhm


Notice from spectre during transient analysis `tran', during Monte Carlo analysis `mc1'.
    Multithreading is disabled due to the size of the design being too small.


Output and IC/nodeset summary:
                 save   8       (current)
                 save   87      (voltage)

    tran: time = 1.515 s     (3.03 %), step = 500 ms          (1 %)
    tran: time = 4.015 s     (8.03 %), step = 500 ms          (1 %)
    tran: time = 6.515 s       (13 %), step = 500 ms          (1 %)
    tran: time = 9.015 s       (18 %), step = 500 ms          (1 %)
    tran: time = 11.52 s       (23 %), step = 500 ms          (1 %)
    tran: time = 14.02 s       (28 %), step = 500 ms          (1 %)
    tran: time = 16.52 s       (33 %), step = 500 ms          (1 %)
    tran: time = 19.02 s       (38 %), step = 500 ms          (1 %)
    tran: time = 21.52 s       (43 %), step = 500 ms          (1 %)
    tran: time = 24.02 s       (48 %), step = 500 ms          (1 %)
    tran: time = 26.52 s       (53 %), step = 500 ms          (1 %)
    tran: time = 29.02 s       (58 %), step = 500 ms          (1 %)
    tran: time = 31.52 s       (63 %), step = 500 ms          (1 %)
    tran: time = 34.02 s       (68 %), step = 500 ms          (1 %)
    tran: time = 36.52 s       (73 %), step = 500 ms          (1 %)
    tran: time = 39.02 s       (78 %), step = 500 ms          (1 %)
    tran: time = 41.52 s       (83 %), step = 500 ms          (1 %)
    tran: time = 44.02 s       (88 %), step = 500 ms          (1 %)
    tran: time = 46.52 s       (93 %), step = 500 ms          (1 %)
    tran: time = 49.02 s       (98 %), step = 500 ms          (1 %)
Number of accepted tran steps =             682

Maximum value achieved for any signal of each quantity: 
V: V(S<0>) = 3.3 V
I: I(V8:p) = 7.203 uA
Maximum value of each quantity, excluding Verilog-A modules or dangling current sources:
V: V(vout_filt) = 3.233 V
I: I(V8:p) = 7.203 uA

~~~~~~~~~~~~~~~~~~~~~~~~~~~~~~~~~
Post-Transient Simulation Summary
~~~~~~~~~~~~~~~~~~~~~~~~~~~~~~~~~
   -   To further speed up simulation, consider
          add ++aps on command line
   -   Non-default settings that could significantly slow down simulation
          errpreset = conservative, default moderate
          reltol = 10e-06, default 100e-06 (conservative)
~~~~~~~~~~~~~~~~~~~~~~~~~~~~~~~~~


During simulation, the CPU load for active processors is :
         0 (61.5 %)      1 (17.6 %)      2 (3.6 %)       3 (4.0 %)
         4 (2.8 %)       5 (100.0 %)     6 (2.8 %)       7 (12.4 %)
         8 (9.5 %)       9 (6.1 %)      10 (5.7 %)      11 (3.2 %)
        12 (19.3 %)     13 (6.4 %)      14 (5.2 %)      15 (3.6 %)
        16 (12.4 %)     17 (19.7 %)     18 (5.6 %)      19 (53.2 %)
        20 (41.1 %)     21 (7.3 %)      22 (4.0 %)      23 (3.2 %)
        24 (10.5 %)     25 (1.2 %)      26 (2.0 %)      27 (2.4 %)
        28 (1.6 %)      29 (100.0 %)    30 (1.2 %)      31 (19.1 %)
        32 (3.3 %)      33 (3.2 %)      34 (2.8 %)      35 (87.4 %)
        36 (61.4 %)     37 (3.2 %)      38 (27.9 %)     39 (9.6 %)
        40 (2.8 %)      41 (5.6 %)      42 (4.8 %)      43 (2.8 %)
        44 (3.6 %)      45 (43.4 %)     46 (1.2 %)      47 (91.6 %)
        Total: 903.1%
Initial condition solution time: CPU = 2.456 ms, elapsed = 2.45786 ms.
Intrinsic tran analysis time:    CPU = 408.051 ms, elapsed = 409.77 ms.
Total time required for tran analysis `tran': CPU = 412.819 ms, elapsed = 415.335 ms, util. = 99.4%.
Time accumulated: CPU = 1.92084 s, elapsed = 2.58213 s.
Peak resident memory used = 213 Mbytes.


Notice from spectre during transient analysis `tran', during Monte Carlo analysis `mc1'.
    34 warnings suppressed.

finalTimeOP: writing operating point information to rawfile.

Opening the PSF file ../psf/mc1_separate/002/finalTimeOP.info ...
modelParameter: writing model parameter values to rawfile.

Opening the PSF file ../psf/mc1_separate/002/modelParameter.info ...
element: writing instance parameter values to rawfile.

Opening the PSF file ../psf/mc1_separate/002/element.info ...
outputParameter: writing output parameter values to rawfile.

Opening the PSF file ../psf/mc1_separate/002/outputParameter.info ...
designParamVals: writing netlist parameters to rawfile.

Opening the PSFASCII file ../psf/mc1_separate/002/designParamVals.info ...
primitives: writing primitives to rawfile.

Opening the PSFASCII file ../psf/mc1_separate/002/primitives.info.primitives ...
subckts: writing subcircuits to rawfile.

Opening the PSFASCII file ../psf/mc1_separate/002/subckts.info.subckts ...
3   2.02% 

*****************************************************************************************
* 
* INFO: AMS_processOption = C35B4C3
* 
* INFO: Valid Modules  PIP VG5 HIRES
* 
*****************************************************************************************


Notice from spectre during Monte Carlo analysis `mc1'.
    V8: `period' has the unusually large value of 100 s.


***********************************************
Transient Analysis `tran': time = (0 s -> 50 s)
***********************************************

Opening the PSF file ../psf/mc1_separate/003/tran.tran.tran ...

Warning from spectre during check, during IC analysis, during transient analysis `tran', during Monte Carlo analysis `mc1'.
    WARNING (CMI-2943): Parameter checks have been ignored because the valid value for parameter 'trise' could not be found in 'C1'.
    WARNING (CMI-2943): Parameter checks have been ignored because the valid value for parameter 'trise' could not be found in 'I0.R2.CM'.
    WARNING (CMI-2943): Parameter checks have been ignored because the valid value for parameter 'trise' could not be found in 'I0.R2.CS1'.
    WARNING (CMI-2943): Parameter checks have been ignored because the valid value for parameter 'trise' could not be found in 'I0.R2.CS0'.
    WARNING (CMI-2943): Parameter checks have been ignored because the valid value for parameter 'trise' could not be found in 'I0.C3.C1'.
        Further occurrences of this warning will be suppressed.

Convergence achieved in 12 iterations.
DC simulation time: CPU = 2.376 ms, elapsed = 2.37703 ms.
Important parameter values:
    start = 0 s
    outputstart = 0 s
    stop = 50 s
    step = 50 ms
    maxstep = 500 ms
    ic = all
    useprevic = no
    skipdc = no
    reltol = 10e-06
    abstol(V) = 1 uV
    abstol(I) = 1 pA
    temp = 85 C
    tnom = 27 C
    tempeffects = all
    errpreset = conservative
    method = gear2only
    lteratio = 10
    relref = alllocal
    cmin = 0 F
    gmin = 1 pS
    rabsshort = 1 mOhm


Notice from spectre during transient analysis `tran', during Monte Carlo analysis `mc1'.
    Multithreading is disabled due to the size of the design being too small.


Output and IC/nodeset summary:
                 save   8       (current)
                 save   87      (voltage)

    tran: time = 1.394 s     (2.79 %), step = 500 ms          (1 %)
    tran: time = 3.894 s     (7.79 %), step = 500 ms          (1 %)
    tran: time = 6.394 s     (12.8 %), step = 500 ms          (1 %)
    tran: time = 8.894 s     (17.8 %), step = 500 ms          (1 %)
    tran: time = 11.39 s     (22.8 %), step = 500 ms          (1 %)
    tran: time = 13.89 s     (27.8 %), step = 500 ms          (1 %)
    tran: time = 16.39 s     (32.8 %), step = 500 ms          (1 %)
    tran: time = 18.89 s     (37.8 %), step = 500 ms          (1 %)
    tran: time = 21.39 s     (42.8 %), step = 500 ms          (1 %)
    tran: time = 23.89 s     (47.8 %), step = 500 ms          (1 %)
    tran: time = 26.39 s     (52.8 %), step = 500 ms          (1 %)
    tran: time = 28.89 s     (57.8 %), step = 500 ms          (1 %)
    tran: time = 31.39 s     (62.8 %), step = 500 ms          (1 %)
    tran: time = 33.89 s     (67.8 %), step = 500 ms          (1 %)
    tran: time = 36.39 s     (72.8 %), step = 500 ms          (1 %)
    tran: time = 38.89 s     (77.8 %), step = 500 ms          (1 %)
    tran: time = 41.39 s     (82.8 %), step = 500 ms          (1 %)
    tran: time = 43.89 s     (87.8 %), step = 500 ms          (1 %)
    tran: time = 46.39 s     (92.8 %), step = 500 ms          (1 %)
    tran: time = 48.89 s     (97.8 %), step = 500 ms          (1 %)
Number of accepted tran steps =             677

Maximum value achieved for any signal of each quantity: 
V: V(S<0>) = 3.3 V
I: I(V8:p) = 7.093 uA
Maximum value of each quantity, excluding Verilog-A modules or dangling current sources:
V: V(vout_filt) = 3.161 V
I: I(V8:p) = 7.093 uA

~~~~~~~~~~~~~~~~~~~~~~~~~~~~~~~~~
Post-Transient Simulation Summary
~~~~~~~~~~~~~~~~~~~~~~~~~~~~~~~~~
   -   To further speed up simulation, consider
          add ++aps on command line
   -   Non-default settings that could significantly slow down simulation
          errpreset = conservative, default moderate
          reltol = 10e-06, default 100e-06 (conservative)
~~~~~~~~~~~~~~~~~~~~~~~~~~~~~~~~~


During simulation, the CPU load for active processors is :
         0 (67.6 %)      1 (15.5 %)      2 (3.4 %)       3 (3.8 %)
         4 (3.1 %)       5 (100.0 %)     6 (3.4 %)       7 (10.8 %)
         8 (8.4 %)       9 (5.5 %)      10 (5.1 %)      11 (2.7 %)
        12 (17.6 %)     13 (6.7 %)      14 (4.8 %)      15 (3.1 %)
        16 (13.6 %)     17 (21.7 %)     18 (5.1 %)      19 (45.6 %)
        20 (50.3 %)     21 (6.8 %)      22 (3.7 %)      23 (2.7 %)
        24 (24.6 %)     25 (2.0 %)      26 (1.7 %)      27 (4.1 %)
        28 (2.0 %)      29 (100.0 %)    30 (1.7 %)      31 (18.9 %)
        32 (2.7 %)      33 (3.1 %)      34 (2.7 %)      35 (74.6 %)
        36 (67.3 %)     37 (3.0 %)      38 (30.1 %)     39 (8.5 %)
        40 (3.1 %)      41 (5.4 %)      42 (5.1 %)      43 (3.1 %)
        44 (3.4 %)      45 (37.2 %)     46 (1.0 %)      47 (93.0 %)
        Total: 909.1%
Initial condition solution time: CPU = 2.427 ms, elapsed = 2.42782 ms.
Intrinsic tran analysis time:    CPU = 404.389 ms, elapsed = 406.086 ms.
Total time required for tran analysis `tran': CPU = 409.332 ms, elapsed = 411.689 ms, util. = 99.4%.
Time accumulated: CPU = 2.37043 s, elapsed = 3.04486 s.
Peak resident memory used = 213 Mbytes.


Notice from spectre during transient analysis `tran', during Monte Carlo analysis `mc1'.
    34 warnings suppressed.

finalTimeOP: writing operating point information to rawfile.

Opening the PSF file ../psf/mc1_separate/003/finalTimeOP.info ...
modelParameter: writing model parameter values to rawfile.

Opening the PSF file ../psf/mc1_separate/003/modelParameter.info ...
element: writing instance parameter values to rawfile.

Opening the PSF file ../psf/mc1_separate/003/element.info ...
outputParameter: writing output parameter values to rawfile.

Opening the PSF file ../psf/mc1_separate/003/outputParameter.info ...
designParamVals: writing netlist parameters to rawfile.

Opening the PSFASCII file ../psf/mc1_separate/003/designParamVals.info ...
primitives: writing primitives to rawfile.

Opening the PSFASCII file ../psf/mc1_separate/003/primitives.info.primitives ...
subckts: writing subcircuits to rawfile.

Opening the PSFASCII file ../psf/mc1_separate/003/subckts.info.subckts ...
4   3.03% 

*****************************************************************************************
* 
* INFO: AMS_processOption = C35B4C3
* 
* INFO: Valid Modules  PIP VG5 HIRES
* 
*****************************************************************************************


Notice from spectre during Monte Carlo analysis `mc1'.
    V8: `period' has the unusually large value of 100 s.


***********************************************
Transient Analysis `tran': time = (0 s -> 50 s)
***********************************************

Opening the PSF file ../psf/mc1_separate/004/tran.tran.tran ...

Warning from spectre during check, during IC analysis, during transient analysis `tran', during Monte Carlo analysis `mc1'.
    WARNING (CMI-2943): Parameter checks have been ignored because the valid value for parameter 'trise' could not be found in 'C1'.
    WARNING (CMI-2943): Parameter checks have been ignored because the valid value for parameter 'trise' could not be found in 'I0.R2.CM'.
    WARNING (CMI-2943): Parameter checks have been ignored because the valid value for parameter 'trise' could not be found in 'I0.R2.CS1'.
    WARNING (CMI-2943): Parameter checks have been ignored because the valid value for parameter 'trise' could not be found in 'I0.R2.CS0'.
    WARNING (CMI-2943): Parameter checks have been ignored because the valid value for parameter 'trise' could not be found in 'I0.C3.C1'.
        Further occurrences of this warning will be suppressed.

Convergence achieved in 12 iterations.
DC simulation time: CPU = 2.296 ms, elapsed = 2.29597 ms.
Important parameter values:
    start = 0 s
    outputstart = 0 s
    stop = 50 s
    step = 50 ms
    maxstep = 500 ms
    ic = all
    useprevic = no
    skipdc = no
    reltol = 10e-06
    abstol(V) = 1 uV
    abstol(I) = 1 pA
    temp = 85 C
    tnom = 27 C
    tempeffects = all
    errpreset = conservative
    method = gear2only
    lteratio = 10
    relref = alllocal
    cmin = 0 F
    gmin = 1 pS
    rabsshort = 1 mOhm


Notice from spectre during transient analysis `tran', during Monte Carlo analysis `mc1'.
    Multithreading is disabled due to the size of the design being too small.


Output and IC/nodeset summary:
                 save   8       (current)
                 save   87      (voltage)

    tran: time = 1.518 s     (3.04 %), step = 500 ms          (1 %)
    tran: time = 4.018 s     (8.04 %), step = 500 ms          (1 %)
    tran: time = 6.518 s       (13 %), step = 500 ms          (1 %)
    tran: time = 9.018 s       (18 %), step = 500 ms          (1 %)
    tran: time = 11.52 s       (23 %), step = 500 ms          (1 %)
    tran: time = 14.02 s       (28 %), step = 500 ms          (1 %)
    tran: time = 16.52 s       (33 %), step = 500 ms          (1 %)
    tran: time = 19.02 s       (38 %), step = 500 ms          (1 %)
    tran: time = 21.52 s       (43 %), step = 500 ms          (1 %)
    tran: time = 24.02 s       (48 %), step = 500 ms          (1 %)
    tran: time = 26.52 s       (53 %), step = 500 ms          (1 %)
    tran: time = 29.02 s       (58 %), step = 500 ms          (1 %)
    tran: time = 31.52 s       (63 %), step = 500 ms          (1 %)
    tran: time = 34.02 s       (68 %), step = 500 ms          (1 %)
    tran: time = 36.52 s       (73 %), step = 500 ms          (1 %)
    tran: time = 39.02 s       (78 %), step = 500 ms          (1 %)
    tran: time = 41.52 s       (83 %), step = 500 ms          (1 %)
    tran: time = 44.02 s       (88 %), step = 500 ms          (1 %)
    tran: time = 46.52 s       (93 %), step = 500 ms          (1 %)
    tran: time = 49.02 s       (98 %), step = 500 ms          (1 %)
Number of accepted tran steps =             676

Maximum value achieved for any signal of each quantity: 
V: V(S<0>) = 3.3 V
I: I(V8:p) = 7.361 uA
Maximum value of each quantity, excluding Verilog-A modules or dangling current sources:
V: V(vout_filt) = 3.143 V
I: I(V8:p) = 7.361 uA

~~~~~~~~~~~~~~~~~~~~~~~~~~~~~~~~~
Post-Transient Simulation Summary
~~~~~~~~~~~~~~~~~~~~~~~~~~~~~~~~~
   -   To further speed up simulation, consider
          add ++aps on command line
   -   Non-default settings that could significantly slow down simulation
          errpreset = conservative, default moderate
          reltol = 10e-06, default 100e-06 (conservative)
~~~~~~~~~~~~~~~~~~~~~~~~~~~~~~~~~


During simulation, the CPU load for active processors is :
         0 (71.6 %)      1 (13.4 %)      2 (2.9 %)       3 (3.2 %)
         4 (2.9 %)       5 (100.0 %)     6 (3.2 %)       7 (9.6 %)
         8 (7.8 %)       9 (4.7 %)      10 (4.7 %)      11 (2.6 %)
        12 (17.6 %)     13 (6.4 %)      14 (4.7 %)      15 (3.8 %)
        16 (14.9 %)     17 (20.2 %)     18 (17.4 %)     19 (40.2 %)
        20 (57.2 %)     21 (6.5 %)      22 (3.5 %)      23 (3.0 %)
        24 (31.7 %)     25 (4.7 %)      26 (2.4 %)      27 (5.3 %)
        28 (4.7 %)      29 (100.0 %)    30 (1.5 %)      31 (19.3 %)
        32 (2.9 %)      33 (2.7 %)      34 (3.0 %)      35 (65.0 %)
        36 (70.6 %)     37 (3.5 %)      38 (27.1 %)     39 (7.6 %)
        40 (3.0 %)      41 (4.9 %)      42 (4.4 %)      43 (2.7 %)
        44 (3.5 %)      45 (33.0 %)     46 (1.8 %)      47 (93.9 %)
        Total: 921.5%
Initial condition solution time: CPU = 2.336 ms, elapsed = 2.33793 ms.
Intrinsic tran analysis time:    CPU = 406.748 ms, elapsed = 408.294 ms.
Total time required for tran analysis `tran': CPU = 411.685 ms, elapsed = 413.896 ms, util. = 99.5%.
Time accumulated: CPU = 2.82311 s, elapsed = 3.51159 s.
Peak resident memory used = 214 Mbytes.


Notice from spectre during transient analysis `tran', during Monte Carlo analysis `mc1'.
    34 warnings suppressed.

finalTimeOP: writing operating point information to rawfile.

Opening the PSF file ../psf/mc1_separate/004/finalTimeOP.info ...
modelParameter: writing model parameter values to rawfile.

Opening the PSF file ../psf/mc1_separate/004/modelParameter.info ...
element: writing instance parameter values to rawfile.

Opening the PSF file ../psf/mc1_separate/004/element.info ...
outputParameter: writing output parameter values to rawfile.

Opening the PSF file ../psf/mc1_separate/004/outputParameter.info ...
designParamVals: writing netlist parameters to rawfile.

Opening the PSFASCII file ../psf/mc1_separate/004/designParamVals.info ...
primitives: writing primitives to rawfile.

Opening the PSFASCII file ../psf/mc1_separate/004/primitives.info.primitives ...
subckts: writing subcircuits to rawfile.

Opening the PSFASCII file ../psf/mc1_separate/004/subckts.info.subckts ...
    mc1: iteration = 4           (3.03 %), step = 1            (1.01 %)
5   4.04% 

*****************************************************************************************
* 
* INFO: AMS_processOption = C35B4C3
* 
* INFO: Valid Modules  PIP VG5 HIRES
* 
*****************************************************************************************


Notice from spectre during Monte Carlo analysis `mc1'.
    V8: `period' has the unusually large value of 100 s.


***********************************************
Transient Analysis `tran': time = (0 s -> 50 s)
***********************************************

Opening the PSF file ../psf/mc1_separate/005/tran.tran.tran ...

Warning from spectre during check, during IC analysis, during transient analysis `tran', during Monte Carlo analysis `mc1'.
    WARNING (CMI-2943): Parameter checks have been ignored because the valid value for parameter 'trise' could not be found in 'C1'.
    WARNING (CMI-2943): Parameter checks have been ignored because the valid value for parameter 'trise' could not be found in 'I0.R2.CM'.
    WARNING (CMI-2943): Parameter checks have been ignored because the valid value for parameter 'trise' could not be found in 'I0.R2.CS1'.
    WARNING (CMI-2943): Parameter checks have been ignored because the valid value for parameter 'trise' could not be found in 'I0.R2.CS0'.
    WARNING (CMI-2943): Parameter checks have been ignored because the valid value for parameter 'trise' could not be found in 'I0.C3.C1'.
        Further occurrences of this warning will be suppressed.

Convergence achieved in 12 iterations.
DC simulation time: CPU = 2.311 ms, elapsed = 2.31194 ms.
Important parameter values:
    start = 0 s
    outputstart = 0 s
    stop = 50 s
    step = 50 ms
    maxstep = 500 ms
    ic = all
    useprevic = no
    skipdc = no
    reltol = 10e-06
    abstol(V) = 1 uV
    abstol(I) = 1 pA
    temp = 85 C
    tnom = 27 C
    tempeffects = all
    errpreset = conservative
    method = gear2only
    lteratio = 10
    relref = alllocal
    cmin = 0 F
    gmin = 1 pS
    rabsshort = 1 mOhm


Notice from spectre during transient analysis `tran', during Monte Carlo analysis `mc1'.
    Multithreading is disabled due to the size of the design being too small.


Output and IC/nodeset summary:
                 save   8       (current)
                 save   87      (voltage)

    tran: time = 1.625 s     (3.25 %), step = 500 ms          (1 %)
    tran: time = 4.125 s     (8.25 %), step = 500 ms          (1 %)
    tran: time = 6.625 s     (13.2 %), step = 500 ms          (1 %)
    tran: time = 9.125 s     (18.2 %), step = 500 ms          (1 %)
    tran: time = 11.62 s     (23.2 %), step = 500 ms          (1 %)
    tran: time = 14.12 s     (28.2 %), step = 500 ms          (1 %)
    tran: time = 16.62 s     (33.2 %), step = 500 ms          (1 %)
    tran: time = 19.12 s     (38.2 %), step = 500 ms          (1 %)
    tran: time = 21.62 s     (43.2 %), step = 500 ms          (1 %)
    tran: time = 24.12 s     (48.2 %), step = 500 ms          (1 %)
    tran: time = 26.62 s     (53.2 %), step = 500 ms          (1 %)
    tran: time = 29.12 s     (58.2 %), step = 500 ms          (1 %)
    tran: time = 31.62 s     (63.2 %), step = 500 ms          (1 %)
    tran: time = 34.12 s     (68.2 %), step = 500 ms          (1 %)
    tran: time = 36.62 s     (73.2 %), step = 500 ms          (1 %)
    tran: time = 39.12 s     (78.2 %), step = 500 ms          (1 %)
    tran: time = 41.62 s     (83.2 %), step = 500 ms          (1 %)
    tran: time = 44.12 s     (88.2 %), step = 500 ms          (1 %)
    tran: time = 46.62 s     (93.2 %), step = 500 ms          (1 %)
    tran: time = 49.12 s     (98.2 %), step = 500 ms          (1 %)
Number of accepted tran steps =             682

Maximum value achieved for any signal of each quantity: 
V: V(S<0>) = 3.3 V
I: I(V8:p) = 7.312 uA
Maximum value of each quantity, excluding Verilog-A modules or dangling current sources:
V: V(vout_filt) = 3.228 V
I: I(V8:p) = 7.312 uA

~~~~~~~~~~~~~~~~~~~~~~~~~~~~~~~~~
Post-Transient Simulation Summary
~~~~~~~~~~~~~~~~~~~~~~~~~~~~~~~~~
   -   To further speed up simulation, consider
          add ++aps on command line
   -   Non-default settings that could significantly slow down simulation
          errpreset = conservative, default moderate
          reltol = 10e-06, default 100e-06 (conservative)
~~~~~~~~~~~~~~~~~~~~~~~~~~~~~~~~~


During simulation, the CPU load for active processors is :
         0 (74.5 %)      1 (12.6 %)      2 (3.1 %)       3 (2.9 %)
         4 (2.6 %)       5 (100.0 %)     6 (3.1 %)       7 (9.0 %)
         8 (7.2 %)       9 (4.4 %)      10 (4.2 %)      11 (2.6 %)
        12 (16.0 %)     13 (6.2 %)      14 (6.2 %)      15 (4.1 %)
        16 (22.1 %)     17 (19.4 %)     18 (27.0 %)     19 (35.8 %)
        20 (50.6 %)     21 (7.8 %)      22 (3.6 %)      23 (2.6 %)
        24 (28.0 %)     25 (4.7 %)      26 (3.4 %)      27 (5.7 %)
        28 (16.0 %)     29 (100.0 %)    30 (1.6 %)      31 (19.1 %)
        32 (3.6 %)      33 (2.6 %)      34 (2.9 %)      35 (58.1 %)
        36 (62.3 %)     37 (3.3 %)      38 (25.6 %)     39 (6.7 %)
        40 (2.6 %)      41 (4.4 %)      42 (4.1 %)      43 (2.6 %)
        44 (4.1 %)      45 (41.0 %)     46 (1.6 %)      47 (94.4 %)
        Total: 926.1%
Initial condition solution time: CPU = 2.353 ms, elapsed = 2.3551 ms.
Intrinsic tran analysis time:    CPU = 409.281 ms, elapsed = 410.959 ms.
Total time required for tran analysis `tran': CPU = 414.103 ms, elapsed = 416.427 ms, util. = 99.4%.
Time accumulated: CPU = 3.27775 s, elapsed = 3.97973 s.
Peak resident memory used = 214 Mbytes.


Notice from spectre during transient analysis `tran', during Monte Carlo analysis `mc1'.
    34 warnings suppressed.

finalTimeOP: writing operating point information to rawfile.

Opening the PSF file ../psf/mc1_separate/005/finalTimeOP.info ...
modelParameter: writing model parameter values to rawfile.

Opening the PSF file ../psf/mc1_separate/005/modelParameter.info ...
element: writing instance parameter values to rawfile.

Opening the PSF file ../psf/mc1_separate/005/element.info ...
outputParameter: writing output parameter values to rawfile.

Opening the PSF file ../psf/mc1_separate/005/outputParameter.info ...
designParamVals: writing netlist parameters to rawfile.

Opening the PSFASCII file ../psf/mc1_separate/005/designParamVals.info ...
primitives: writing primitives to rawfile.

Opening the PSFASCII file ../psf/mc1_separate/005/primitives.info.primitives ...
subckts: writing subcircuits to rawfile.

Opening the PSFASCII file ../psf/mc1_separate/005/subckts.info.subckts ...
    mc1: iteration = 5           (4.04 %), step = 1            (1.01 %)
6   5.05% 

*****************************************************************************************
* 
* INFO: AMS_processOption = C35B4C3
* 
* INFO: Valid Modules  PIP VG5 HIRES
* 
*****************************************************************************************


Notice from spectre during Monte Carlo analysis `mc1'.
    V8: `period' has the unusually large value of 100 s.


***********************************************
Transient Analysis `tran': time = (0 s -> 50 s)
***********************************************

Opening the PSF file ../psf/mc1_separate/006/tran.tran.tran ...

Warning from spectre during check, during IC analysis, during transient analysis `tran', during Monte Carlo analysis `mc1'.
    WARNING (CMI-2943): Parameter checks have been ignored because the valid value for parameter 'trise' could not be found in 'C1'.
    WARNING (CMI-2943): Parameter checks have been ignored because the valid value for parameter 'trise' could not be found in 'I0.R2.CM'.
    WARNING (CMI-2943): Parameter checks have been ignored because the valid value for parameter 'trise' could not be found in 'I0.R2.CS1'.
    WARNING (CMI-2943): Parameter checks have been ignored because the valid value for parameter 'trise' could not be found in 'I0.R2.CS0'.
    WARNING (CMI-2943): Parameter checks have been ignored because the valid value for parameter 'trise' could not be found in 'I0.C3.C1'.
        Further occurrences of this warning will be suppressed.

Convergence achieved in 12 iterations.
DC simulation time: CPU = 2.417 ms, elapsed = 2.41613 ms.
Important parameter values:
    start = 0 s
    outputstart = 0 s
    stop = 50 s
    step = 50 ms
    maxstep = 500 ms
    ic = all
    useprevic = no
    skipdc = no
    reltol = 10e-06
    abstol(V) = 1 uV
    abstol(I) = 1 pA
    temp = 85 C
    tnom = 27 C
    tempeffects = all
    errpreset = conservative
    method = gear2only
    lteratio = 10
    relref = alllocal
    cmin = 0 F
    gmin = 1 pS
    rabsshort = 1 mOhm


Notice from spectre during transient analysis `tran', during Monte Carlo analysis `mc1'.
    Multithreading is disabled due to the size of the design being too small.


Output and IC/nodeset summary:
                 save   8       (current)
                 save   87      (voltage)

    tran: time = 1.437 s     (2.87 %), step = 500 ms          (1 %)
    tran: time = 3.937 s     (7.87 %), step = 500 ms          (1 %)
    tran: time = 6.437 s     (12.9 %), step = 500 ms          (1 %)
    tran: time = 8.937 s     (17.9 %), step = 500 ms          (1 %)
    tran: time = 11.44 s     (22.9 %), step = 500 ms          (1 %)
    tran: time = 13.94 s     (27.9 %), step = 500 ms          (1 %)
    tran: time = 16.44 s     (32.9 %), step = 500 ms          (1 %)
    tran: time = 18.94 s     (37.9 %), step = 500 ms          (1 %)
    tran: time = 21.44 s     (42.9 %), step = 500 ms          (1 %)
    tran: time = 23.94 s     (47.9 %), step = 500 ms          (1 %)
    tran: time = 26.44 s     (52.9 %), step = 500 ms          (1 %)
    tran: time = 28.94 s     (57.9 %), step = 500 ms          (1 %)
    tran: time = 31.44 s     (62.9 %), step = 500 ms          (1 %)
    tran: time = 33.94 s     (67.9 %), step = 500 ms          (1 %)
    tran: time = 36.44 s     (72.9 %), step = 500 ms          (1 %)
    tran: time = 38.94 s     (77.9 %), step = 500 ms          (1 %)
    tran: time = 41.44 s     (82.9 %), step = 500 ms          (1 %)
    tran: time = 43.94 s     (87.9 %), step = 500 ms          (1 %)
    tran: time = 46.44 s     (92.9 %), step = 500 ms          (1 %)
    tran: time = 48.94 s     (97.9 %), step = 500 ms          (1 %)
Number of accepted tran steps =             680

Maximum value achieved for any signal of each quantity: 
V: V(S<0>) = 3.3 V
I: I(V8:p) = 7.36 uA
Maximum value of each quantity, excluding Verilog-A modules or dangling current sources:
V: V(vout_filt) = 3.194 V
I: I(V8:p) = 7.36 uA

~~~~~~~~~~~~~~~~~~~~~~~~~~~~~~~~~
Post-Transient Simulation Summary
~~~~~~~~~~~~~~~~~~~~~~~~~~~~~~~~~
   -   To further speed up simulation, consider
          add ++aps on command line
   -   Non-default settings that could significantly slow down simulation
          errpreset = conservative, default moderate
          reltol = 10e-06, default 100e-06 (conservative)
~~~~~~~~~~~~~~~~~~~~~~~~~~~~~~~~~


During simulation, the CPU load for active processors is :
         0 (68.0 %)      1 (11.7 %)      2 (2.8 %)       3 (2.8 %)
         4 (3.0 %)       5 (100.0 %)     6 (3.2 %)       7 (17.9 %)
         8 (6.6 %)       9 (4.0 %)      10 (4.4 %)      11 (2.5 %)
        12 (14.7 %)     13 (5.7 %)      14 (5.5 %)      15 (3.9 %)
        16 (30.7 %)     17 (19.4 %)     18 (33.9 %)     19 (32.4 %)
        20 (45.5 %)     21 (7.2 %)      22 (3.5 %)      23 (2.6 %)
        24 (25.1 %)     25 (4.6 %)      26 (3.2 %)      27 (5.8 %)
        28 (25.1 %)     29 (100.0 %)    30 (1.4 %)      31 (17.7 %)
        32 (5.3 %)      33 (2.8 %)      34 (3.0 %)      35 (51.9 %)
        36 (55.8 %)     37 (3.0 %)      38 (26.1 %)     39 (6.2 %)
        40 (2.6 %)      41 (3.9 %)      42 (3.7 %)      43 (3.2 %)
        44 (3.7 %)      45 (47.0 %)     46 (1.4 %)      47 (91.8 %)
        Total: 926.2%
Initial condition solution time: CPU = 2.468 ms, elapsed = 2.47002 ms.
Intrinsic tran analysis time:    CPU = 407.753 ms, elapsed = 409.107 ms.
Total time required for tran analysis `tran': CPU = 412.781 ms, elapsed = 414.85 ms, util. = 99.5%.
Time accumulated: CPU = 3.73578 s, elapsed = 4.45384 s.
Peak resident memory used = 214 Mbytes.


Notice from spectre during transient analysis `tran', during Monte Carlo analysis `mc1'.
    34 warnings suppressed.

finalTimeOP: writing operating point information to rawfile.

Opening the PSF file ../psf/mc1_separate/006/finalTimeOP.info ...
modelParameter: writing model parameter values to rawfile.

Opening the PSF file ../psf/mc1_separate/006/modelParameter.info ...
element: writing instance parameter values to rawfile.

Opening the PSF file ../psf/mc1_separate/006/element.info ...
outputParameter: writing output parameter values to rawfile.

Opening the PSF file ../psf/mc1_separate/006/outputParameter.info ...
designParamVals: writing netlist parameters to rawfile.

Opening the PSFASCII file ../psf/mc1_separate/006/designParamVals.info ...
primitives: writing primitives to rawfile.

Opening the PSFASCII file ../psf/mc1_separate/006/primitives.info.primitives ...
subckts: writing subcircuits to rawfile.

Opening the PSFASCII file ../psf/mc1_separate/006/subckts.info.subckts ...
    mc1: iteration = 6           (5.05 %), step = 1            (1.01 %)
7   6.06% 

*****************************************************************************************
* 
* INFO: AMS_processOption = C35B4C3
* 
* INFO: Valid Modules  PIP VG5 HIRES
* 
*****************************************************************************************


Notice from spectre during Monte Carlo analysis `mc1'.
    V8: `period' has the unusually large value of 100 s.


***********************************************
Transient Analysis `tran': time = (0 s -> 50 s)
***********************************************

Opening the PSF file ../psf/mc1_separate/007/tran.tran.tran ...

Warning from spectre during check, during IC analysis, during transient analysis `tran', during Monte Carlo analysis `mc1'.
    WARNING (CMI-2943): Parameter checks have been ignored because the valid value for parameter 'trise' could not be found in 'C1'.
    WARNING (CMI-2943): Parameter checks have been ignored because the valid value for parameter 'trise' could not be found in 'I0.R2.CM'.
    WARNING (CMI-2943): Parameter checks have been ignored because the valid value for parameter 'trise' could not be found in 'I0.R2.CS1'.
    WARNING (CMI-2943): Parameter checks have been ignored because the valid value for parameter 'trise' could not be found in 'I0.R2.CS0'.
    WARNING (CMI-2943): Parameter checks have been ignored because the valid value for parameter 'trise' could not be found in 'I0.C3.C1'.
        Further occurrences of this warning will be suppressed.

Convergence achieved in 12 iterations.
DC simulation time: CPU = 2.365 ms, elapsed = 2.36487 ms.
Important parameter values:
    start = 0 s
    outputstart = 0 s
    stop = 50 s
    step = 50 ms
    maxstep = 500 ms
    ic = all
    useprevic = no
    skipdc = no
    reltol = 10e-06
    abstol(V) = 1 uV
    abstol(I) = 1 pA
    temp = 85 C
    tnom = 27 C
    tempeffects = all
    errpreset = conservative
    method = gear2only
    lteratio = 10
    relref = alllocal
    cmin = 0 F
    gmin = 1 pS
    rabsshort = 1 mOhm


Notice from spectre during transient analysis `tran', during Monte Carlo analysis `mc1'.
    Multithreading is disabled due to the size of the design being too small.


Output and IC/nodeset summary:
                 save   8       (current)
                 save   87      (voltage)

    tran: time = 1.595 s     (3.19 %), step = 500 ms          (1 %)
    tran: time = 4.095 s     (8.19 %), step = 500 ms          (1 %)
    tran: time = 6.595 s     (13.2 %), step = 500 ms          (1 %)
    tran: time = 9.095 s     (18.2 %), step = 500 ms          (1 %)
    tran: time = 11.59 s     (23.2 %), step = 500 ms          (1 %)
    tran: time = 14.09 s     (28.2 %), step = 500 ms          (1 %)
    tran: time = 16.59 s     (33.2 %), step = 500 ms          (1 %)
    tran: time = 19.09 s     (38.2 %), step = 500 ms          (1 %)
    tran: time = 21.59 s     (43.2 %), step = 500 ms          (1 %)
    tran: time = 24.09 s     (48.2 %), step = 500 ms          (1 %)
    tran: time = 26.59 s     (53.2 %), step = 500 ms          (1 %)
    tran: time = 29.09 s     (58.2 %), step = 500 ms          (1 %)
    tran: time = 31.59 s     (63.2 %), step = 500 ms          (1 %)
    tran: time = 34.09 s     (68.2 %), step = 500 ms          (1 %)
    tran: time = 36.59 s     (73.2 %), step = 500 ms          (1 %)
    tran: time = 39.09 s     (78.2 %), step = 500 ms          (1 %)
    tran: time = 41.59 s     (83.2 %), step = 500 ms          (1 %)
    tran: time = 44.09 s     (88.2 %), step = 500 ms          (1 %)
    tran: time = 46.59 s     (93.2 %), step = 500 ms          (1 %)
    tran: time = 49.09 s     (98.2 %), step = 500 ms          (1 %)
Number of accepted tran steps =             681

Maximum value achieved for any signal of each quantity: 
V: V(S<0>) = 3.3 V
I: I(V8:p) = 7.251 uA
Maximum value of each quantity, excluding Verilog-A modules or dangling current sources:
V: V(vout_filt) = 3.218 V
I: I(V8:p) = 7.251 uA

~~~~~~~~~~~~~~~~~~~~~~~~~~~~~~~~~
Post-Transient Simulation Summary
~~~~~~~~~~~~~~~~~~~~~~~~~~~~~~~~~
   -   To further speed up simulation, consider
          add ++aps on command line
   -   Non-default settings that could significantly slow down simulation
          errpreset = conservative, default moderate
          reltol = 10e-06, default 100e-06 (conservative)
~~~~~~~~~~~~~~~~~~~~~~~~~~~~~~~~~


During simulation, the CPU load for active processors is :
         0 (64.0 %)      1 (11.2 %)      2 (3.5 %)       3 (2.7 %)
         4 (2.9 %)       5 (100.0 %)     6 (2.9 %)       7 (25.7 %)
         8 (6.2 %)       9 (3.8 %)      10 (4.2 %)      11 (2.9 %)
        12 (14.3 %)     13 (5.6 %)      14 (5.4 %)      15 (4.0 %)
        16 (36.6 %)     17 (17.7 %)     18 (40.3 %)     19 (30.4 %)
        20 (41.4 %)     21 (8.1 %)      22 (3.1 %)      23 (2.7 %)
        24 (22.6 %)     25 (5.4 %)      26 (3.3 %)      27 (5.4 %)
        28 (31.6 %)     29 (100.0 %)    30 (1.5 %)      31 (18.5 %)
        32 (6.5 %)      33 (2.5 %)      34 (3.1 %)      35 (47.1 %)
        36 (50.9 %)     37 (2.7 %)      38 (33.1 %)     39 (6.1 %)
        40 (2.7 %)      41 (5.0 %)      42 (3.4 %)      43 (2.9 %)
        44 (3.6 %)      45 (51.5 %)     46 (1.5 %)      47 (83.3 %)
        Total: 934.0%
Initial condition solution time: CPU = 2.406 ms, elapsed = 2.40803 ms.
Intrinsic tran analysis time:    CPU = 410.013 ms, elapsed = 411.674 ms.
Total time required for tran analysis `tran': CPU = 414.705 ms, elapsed = 417.089 ms, util. = 99.4%.
Time accumulated: CPU = 4.19088 s, elapsed = 4.92229 s.
Peak resident memory used = 214 Mbytes.


Notice from spectre during transient analysis `tran', during Monte Carlo analysis `mc1'.
    34 warnings suppressed.

finalTimeOP: writing operating point information to rawfile.

Opening the PSF file ../psf/mc1_separate/007/finalTimeOP.info ...
modelParameter: writing model parameter values to rawfile.

Opening the PSF file ../psf/mc1_separate/007/modelParameter.info ...
element: writing instance parameter values to rawfile.

Opening the PSF file ../psf/mc1_separate/007/element.info ...
outputParameter: writing output parameter values to rawfile.

Opening the PSF file ../psf/mc1_separate/007/outputParameter.info ...
designParamVals: writing netlist parameters to rawfile.

Opening the PSFASCII file ../psf/mc1_separate/007/designParamVals.info ...
primitives: writing primitives to rawfile.

Opening the PSFASCII file ../psf/mc1_separate/007/primitives.info.primitives ...
subckts: writing subcircuits to rawfile.

Opening the PSFASCII file ../psf/mc1_separate/007/subckts.info.subckts ...
    mc1: iteration = 7           (6.06 %), step = 1            (1.01 %)
8   7.07% 

*****************************************************************************************
* 
* INFO: AMS_processOption = C35B4C3
* 
* INFO: Valid Modules  PIP VG5 HIRES
* 
*****************************************************************************************


Notice from spectre during Monte Carlo analysis `mc1'.
    V8: `period' has the unusually large value of 100 s.


***********************************************
Transient Analysis `tran': time = (0 s -> 50 s)
***********************************************

Opening the PSF file ../psf/mc1_separate/008/tran.tran.tran ...

Warning from spectre during check, during IC analysis, during transient analysis `tran', during Monte Carlo analysis `mc1'.
    WARNING (CMI-2943): Parameter checks have been ignored because the valid value for parameter 'trise' could not be found in 'C1'.
    WARNING (CMI-2943): Parameter checks have been ignored because the valid value for parameter 'trise' could not be found in 'I0.R2.CM'.
    WARNING (CMI-2943): Parameter checks have been ignored because the valid value for parameter 'trise' could not be found in 'I0.R2.CS1'.
    WARNING (CMI-2943): Parameter checks have been ignored because the valid value for parameter 'trise' could not be found in 'I0.R2.CS0'.
    WARNING (CMI-2943): Parameter checks have been ignored because the valid value for parameter 'trise' could not be found in 'I0.C3.C1'.
        Further occurrences of this warning will be suppressed.

Convergence achieved in 12 iterations.
DC simulation time: CPU = 2.442 ms, elapsed = 2.44188 ms.
Important parameter values:
    start = 0 s
    outputstart = 0 s
    stop = 50 s
    step = 50 ms
    maxstep = 500 ms
    ic = all
    useprevic = no
    skipdc = no
    reltol = 10e-06
    abstol(V) = 1 uV
    abstol(I) = 1 pA
    temp = 85 C
    tnom = 27 C
    tempeffects = all
    errpreset = conservative
    method = gear2only
    lteratio = 10
    relref = alllocal
    cmin = 0 F
    gmin = 1 pS
    rabsshort = 1 mOhm


Notice from spectre during transient analysis `tran', during Monte Carlo analysis `mc1'.
    Multithreading is disabled due to the size of the design being too small.


Output and IC/nodeset summary:
                 save   8       (current)
                 save   87      (voltage)

    tran: time = 1.399 s      (2.8 %), step = 500 ms          (1 %)
    tran: time = 3.899 s      (7.8 %), step = 500 ms          (1 %)
    tran: time = 6.399 s     (12.8 %), step = 500 ms          (1 %)
    tran: time = 8.899 s     (17.8 %), step = 500 ms          (1 %)
    tran: time = 11.4 s      (22.8 %), step = 500 ms          (1 %)
    tran: time = 13.9 s      (27.8 %), step = 500 ms          (1 %)
    tran: time = 16.4 s      (32.8 %), step = 500 ms          (1 %)
    tran: time = 18.9 s      (37.8 %), step = 500 ms          (1 %)
    tran: time = 21.4 s      (42.8 %), step = 500 ms          (1 %)
    tran: time = 23.9 s      (47.8 %), step = 500 ms          (1 %)
    tran: time = 26.4 s      (52.8 %), step = 500 ms          (1 %)
    tran: time = 28.9 s      (57.8 %), step = 500 ms          (1 %)
    tran: time = 31.4 s      (62.8 %), step = 500 ms          (1 %)
    tran: time = 33.9 s      (67.8 %), step = 500 ms          (1 %)
    tran: time = 36.4 s      (72.8 %), step = 500 ms          (1 %)
    tran: time = 38.9 s      (77.8 %), step = 500 ms          (1 %)
    tran: time = 41.4 s      (82.8 %), step = 500 ms          (1 %)
    tran: time = 43.9 s      (87.8 %), step = 500 ms          (1 %)
    tran: time = 46.4 s      (92.8 %), step = 500 ms          (1 %)
    tran: time = 48.9 s      (97.8 %), step = 500 ms          (1 %)
Number of accepted tran steps =             683

Maximum value achieved for any signal of each quantity: 
V: V(S<0>) = 3.3 V
I: I(V8:p) = 7.283 uA
Maximum value of each quantity, excluding Verilog-A modules or dangling current sources:
V: V(vout_filt) = 3.229 V
I: I(V8:p) = 7.283 uA

~~~~~~~~~~~~~~~~~~~~~~~~~~~~~~~~~
Post-Transient Simulation Summary
~~~~~~~~~~~~~~~~~~~~~~~~~~~~~~~~~
   -   To further speed up simulation, consider
          add ++aps on command line
   -   Non-default settings that could significantly slow down simulation
          errpreset = conservative, default moderate
          reltol = 10e-06, default 100e-06 (conservative)
~~~~~~~~~~~~~~~~~~~~~~~~~~~~~~~~~


During simulation, the CPU load for active processors is :
         0 (58.6 %)      1 (14.4 %)      2 (4.9 %)       3 (2.5 %)
         4 (9.1 %)       5 (100.0 %)     6 (2.9 %)       7 (24.3 %)
         8 (13.6 %)      9 (4.0 %)      10 (4.4 %)      11 (2.8 %)
        12 (13.0 %)     13 (5.5 %)      14 (5.3 %)      15 (4.0 %)
        16 (42.1 %)     17 (16.8 %)     18 (44.7 %)     19 (28.3 %)
        20 (37.9 %)     21 (7.4 %)      22 (3.1 %)      23 (2.7 %)
        24 (20.7 %)     25 (5.1 %)      26 (3.2 %)      27 (5.3 %)
        28 (37.7 %)     29 (100.0 %)    30 (1.5 %)      31 (17.0 %)
        32 (6.7 %)      33 (2.9 %)      34 (2.9 %)      35 (43.1 %)
        36 (47.0 %)     37 (2.8 %)      38 (32.4 %)     39 (7.3 %)
        40 (2.7 %)      41 (4.5 %)      42 (4.2 %)      43 (3.8 %)
        44 (3.4 %)      45 (55.8 %)     46 (1.5 %)      47 (81.8 %)
        Total: 945.5%
Initial condition solution time: CPU = 2.487 ms, elapsed = 2.4879 ms.
Intrinsic tran analysis time:    CPU = 412.323 ms, elapsed = 414.229 ms.
Total time required for tran analysis `tran': CPU = 417.429 ms, elapsed = 419.919 ms, util. = 99.4%.
Time accumulated: CPU = 4.64969 s, elapsed = 5.39547 s.
Peak resident memory used = 214 Mbytes.


Notice from spectre during transient analysis `tran', during Monte Carlo analysis `mc1'.
    34 warnings suppressed.

finalTimeOP: writing operating point information to rawfile.

Opening the PSF file ../psf/mc1_separate/008/finalTimeOP.info ...
modelParameter: writing model parameter values to rawfile.

Opening the PSF file ../psf/mc1_separate/008/modelParameter.info ...
element: writing instance parameter values to rawfile.

Opening the PSF file ../psf/mc1_separate/008/element.info ...
outputParameter: writing output parameter values to rawfile.

Opening the PSF file ../psf/mc1_separate/008/outputParameter.info ...
designParamVals: writing netlist parameters to rawfile.

Opening the PSFASCII file ../psf/mc1_separate/008/designParamVals.info ...
primitives: writing primitives to rawfile.

Opening the PSFASCII file ../psf/mc1_separate/008/primitives.info.primitives ...
subckts: writing subcircuits to rawfile.

Opening the PSFASCII file ../psf/mc1_separate/008/subckts.info.subckts ...
    mc1: iteration = 8           (7.07 %), step = 1            (1.01 %)
9   8.08% 

*****************************************************************************************
* 
* INFO: AMS_processOption = C35B4C3
* 
* INFO: Valid Modules  PIP VG5 HIRES
* 
*****************************************************************************************


Notice from spectre during Monte Carlo analysis `mc1'.
    V8: `period' has the unusually large value of 100 s.


***********************************************
Transient Analysis `tran': time = (0 s -> 50 s)
***********************************************

Opening the PSF file ../psf/mc1_separate/009/tran.tran.tran ...

Warning from spectre during check, during IC analysis, during transient analysis `tran', during Monte Carlo analysis `mc1'.
    WARNING (CMI-2943): Parameter checks have been ignored because the valid value for parameter 'trise' could not be found in 'C1'.
    WARNING (CMI-2943): Parameter checks have been ignored because the valid value for parameter 'trise' could not be found in 'I0.R2.CM'.
    WARNING (CMI-2943): Parameter checks have been ignored because the valid value for parameter 'trise' could not be found in 'I0.R2.CS1'.
    WARNING (CMI-2943): Parameter checks have been ignored because the valid value for parameter 'trise' could not be found in 'I0.R2.CS0'.
    WARNING (CMI-2943): Parameter checks have been ignored because the valid value for parameter 'trise' could not be found in 'I0.C3.C1'.
        Further occurrences of this warning will be suppressed.

Convergence achieved in 12 iterations.
DC simulation time: CPU = 2.785 ms, elapsed = 2.79713 ms.
Important parameter values:
    start = 0 s
    outputstart = 0 s
    stop = 50 s
    step = 50 ms
    maxstep = 500 ms
    ic = all
    useprevic = no
    skipdc = no
    reltol = 10e-06
    abstol(V) = 1 uV
    abstol(I) = 1 pA
    temp = 85 C
    tnom = 27 C
    tempeffects = all
    errpreset = conservative
    method = gear2only
    lteratio = 10
    relref = alllocal
    cmin = 0 F
    gmin = 1 pS
    rabsshort = 1 mOhm


Notice from spectre during transient analysis `tran', during Monte Carlo analysis `mc1'.
    Multithreading is disabled due to the size of the design being too small.


Output and IC/nodeset summary:
                 save   8       (current)
                 save   87      (voltage)

    tran: time = 1.318 s     (2.64 %), step = 434.8 ms     (870 m%)
    tran: time = 3.818 s     (7.64 %), step = 500 ms          (1 %)
    tran: time = 6.318 s     (12.6 %), step = 500 ms          (1 %)
    tran: time = 8.818 s     (17.6 %), step = 500 ms          (1 %)
    tran: time = 11.32 s     (22.6 %), step = 500 ms          (1 %)
    tran: time = 13.82 s     (27.6 %), step = 500 ms          (1 %)
    tran: time = 16.32 s     (32.6 %), step = 500 ms          (1 %)
    tran: time = 18.82 s     (37.6 %), step = 500 ms          (1 %)
    tran: time = 21.32 s     (42.6 %), step = 500 ms          (1 %)
    tran: time = 23.82 s     (47.6 %), step = 500 ms          (1 %)
    tran: time = 26.32 s     (52.6 %), step = 500 ms          (1 %)
    tran: time = 28.82 s     (57.6 %), step = 500 ms          (1 %)
    tran: time = 31.32 s     (62.6 %), step = 500 ms          (1 %)
    tran: time = 33.82 s     (67.6 %), step = 500 ms          (1 %)
    tran: time = 36.32 s     (72.6 %), step = 500 ms          (1 %)
    tran: time = 38.82 s     (77.6 %), step = 500 ms          (1 %)
    tran: time = 41.32 s     (82.6 %), step = 500 ms          (1 %)
    tran: time = 43.82 s     (87.6 %), step = 500 ms          (1 %)
    tran: time = 46.32 s     (92.6 %), step = 500 ms          (1 %)
    tran: time = 48.82 s     (97.6 %), step = 500 ms          (1 %)
Number of accepted tran steps =             685

Maximum value achieved for any signal of each quantity: 
V: V(S<0>) = 3.3 V
I: I(V8:p) = 7.075 uA
Maximum value of each quantity, excluding Verilog-A modules or dangling current sources:
V: V(vout_filt) = 3.257 V
I: I(V8:p) = 7.075 uA

~~~~~~~~~~~~~~~~~~~~~~~~~~~~~~~~~
Post-Transient Simulation Summary
~~~~~~~~~~~~~~~~~~~~~~~~~~~~~~~~~
   -   To further speed up simulation, consider
          add ++aps on command line
   -   Non-default settings that could significantly slow down simulation
          errpreset = conservative, default moderate
          reltol = 10e-06, default 100e-06 (conservative)
~~~~~~~~~~~~~~~~~~~~~~~~~~~~~~~~~


During simulation, the CPU load for active processors is :
         0 (54.0 %)      1 (19.5 %)      2 (6.1 %)       3 (2.5 %)
         4 (16.6 %)      5 (100.0 %)     6 (4.2 %)       7 (22.5 %)
         8 (20.2 %)      9 (4.0 %)      10 (4.2 %)      11 (3.1 %)
        12 (12.5 %)     13 (5.0 %)      14 (5.4 %)      15 (3.8 %)
        16 (45.3 %)     17 (19.8 %)     18 (48.2 %)     19 (26.2 %)
        20 (35.2 %)     21 (7.3 %)      22 (2.8 %)      23 (2.5 %)
        24 (19.1 %)     25 (4.7 %)      26 (3.3 %)      27 (6.3 %)
        28 (36.1 %)     29 (100.0 %)    30 (1.6 %)      31 (21.9 %)
        32 (6.5 %)      33 (3.0 %)      34 (2.8 %)      35 (39.8 %)
        36 (43.7 %)     37 (2.8 %)      38 (30.4 %)     39 (8.4 %)
        40 (2.5 %)      41 (4.7 %)      42 (4.7 %)      43 (3.9 %)
        44 (3.5 %)      45 (58.7 %)     46 (1.4 %)      47 (83.2 %)
        Total: 963.8%
Initial condition solution time: CPU = 2.835 ms, elapsed = 2.84791 ms.
Intrinsic tran analysis time:    CPU = 413.31 ms, elapsed = 415.163 ms.
Total time required for tran analysis `tran': CPU = 418.879 ms, elapsed = 421.457 ms, util. = 99.4%.
Time accumulated: CPU = 5.1116 s, elapsed = 5.87183 s.
Peak resident memory used = 214 Mbytes.


Notice from spectre during transient analysis `tran', during Monte Carlo analysis `mc1'.
    34 warnings suppressed.

finalTimeOP: writing operating point information to rawfile.

Opening the PSF file ../psf/mc1_separate/009/finalTimeOP.info ...
modelParameter: writing model parameter values to rawfile.

Opening the PSF file ../psf/mc1_separate/009/modelParameter.info ...
element: writing instance parameter values to rawfile.

Opening the PSF file ../psf/mc1_separate/009/element.info ...
outputParameter: writing output parameter values to rawfile.

Opening the PSF file ../psf/mc1_separate/009/outputParameter.info ...
designParamVals: writing netlist parameters to rawfile.

Opening the PSFASCII file ../psf/mc1_separate/009/designParamVals.info ...
primitives: writing primitives to rawfile.

Opening the PSFASCII file ../psf/mc1_separate/009/primitives.info.primitives ...
subckts: writing subcircuits to rawfile.

Opening the PSFASCII file ../psf/mc1_separate/009/subckts.info.subckts ...
    mc1: iteration = 9           (8.08 %), step = 1            (1.01 %)
10   9.09% 

*****************************************************************************************
* 
* INFO: AMS_processOption = C35B4C3
* 
* INFO: Valid Modules  PIP VG5 HIRES
* 
*****************************************************************************************


Notice from spectre during Monte Carlo analysis `mc1'.
    V8: `period' has the unusually large value of 100 s.


***********************************************
Transient Analysis `tran': time = (0 s -> 50 s)
***********************************************

Opening the PSF file ../psf/mc1_separate/010/tran.tran.tran ...

Warning from spectre during check, during IC analysis, during transient analysis `tran', during Monte Carlo analysis `mc1'.
    WARNING (CMI-2943): Parameter checks have been ignored because the valid value for parameter 'trise' could not be found in 'C1'.
    WARNING (CMI-2943): Parameter checks have been ignored because the valid value for parameter 'trise' could not be found in 'I0.R2.CM'.
    WARNING (CMI-2943): Parameter checks have been ignored because the valid value for parameter 'trise' could not be found in 'I0.R2.CS1'.
    WARNING (CMI-2943): Parameter checks have been ignored because the valid value for parameter 'trise' could not be found in 'I0.R2.CS0'.
    WARNING (CMI-2943): Parameter checks have been ignored because the valid value for parameter 'trise' could not be found in 'I0.C3.C1'.
        Further occurrences of this warning will be suppressed.

Convergence achieved in 12 iterations.
DC simulation time: CPU = 2.591 ms, elapsed = 2.59304 ms.
Important parameter values:
    start = 0 s
    outputstart = 0 s
    stop = 50 s
    step = 50 ms
    maxstep = 500 ms
    ic = all
    useprevic = no
    skipdc = no
    reltol = 10e-06
    abstol(V) = 1 uV
    abstol(I) = 1 pA
    temp = 85 C
    tnom = 27 C
    tempeffects = all
    errpreset = conservative
    method = gear2only
    lteratio = 10
[...]
    WARNING (CMI-2943): Parameter checks have been ignored because the valid value for parameter 'trise' could not be found in 'I0.R2.CM'.
    WARNING (CMI-2943): Parameter checks have been ignored because the valid value for parameter 'trise' could not be found in 'I0.R2.CS1'.
    WARNING (CMI-2943): Parameter checks have been ignored because the valid value for parameter 'trise' could not be found in 'I0.R2.CS0'.
    WARNING (CMI-2943): Parameter checks have been ignored because the valid value for parameter 'trise' could not be found in 'I0.C3.C1'.
        Further occurrences of this warning will be suppressed.

Convergence achieved in 12 iterations.
DC simulation time: CPU = 2.224 ms, elapsed = 2.22492 ms.
Important parameter values:
    start = 0 s
    outputstart = 0 s
    stop = 50 s
    step = 50 ms
    maxstep = 500 ms
    ic = all
    useprevic = no
    skipdc = no
    reltol = 10e-06
    abstol(V) = 1 uV
    abstol(I) = 1 pA
    temp = 85 C
    tnom = 27 C
    tempeffects = all
    errpreset = conservative
    method = gear2only
    lteratio = 10
    relref = alllocal
    cmin = 0 F
    gmin = 1 pS
    rabsshort = 1 mOhm


Notice from spectre during transient analysis `tran', during Monte Carlo analysis `mc1'.
    Multithreading is disabled due to the size of the design being too small.


Output and IC/nodeset summary:
                 save   8       (current)
                 save   87      (voltage)

    tran: time = 1.59 s      (3.18 %), step = 500 ms          (1 %)
    tran: time = 4.09 s      (8.18 %), step = 500 ms          (1 %)
    tran: time = 6.59 s      (13.2 %), step = 500 ms          (1 %)
    tran: time = 9.09 s      (18.2 %), step = 500 ms          (1 %)
    tran: time = 11.59 s     (23.2 %), step = 500 ms          (1 %)
    tran: time = 14.09 s     (28.2 %), step = 500 ms          (1 %)
    tran: time = 16.59 s     (33.2 %), step = 500 ms          (1 %)
    tran: time = 19.09 s     (38.2 %), step = 500 ms          (1 %)
    tran: time = 21.59 s     (43.2 %), step = 500 ms          (1 %)
    tran: time = 24.09 s     (48.2 %), step = 500 ms          (1 %)
    tran: time = 26.59 s     (53.2 %), step = 500 ms          (1 %)
    tran: time = 29.09 s     (58.2 %), step = 500 ms          (1 %)
    tran: time = 31.59 s     (63.2 %), step = 500 ms          (1 %)
    tran: time = 34.09 s     (68.2 %), step = 500 ms          (1 %)
    tran: time = 36.59 s     (73.2 %), step = 500 ms          (1 %)
    tran: time = 39.09 s     (78.2 %), step = 500 ms          (1 %)
    tran: time = 41.59 s     (83.2 %), step = 500 ms          (1 %)
    tran: time = 44.09 s     (88.2 %), step = 500 ms          (1 %)
    tran: time = 46.59 s     (93.2 %), step = 500 ms          (1 %)
    tran: time = 49.09 s     (98.2 %), step = 500 ms          (1 %)
Number of accepted tran steps =             681

Maximum value achieved for any signal of each quantity: 
V: V(S<0>) = 3.3 V
I: I(V8:p) = 7.157 uA
Maximum value of each quantity, excluding Verilog-A modules or dangling current sources:
V: V(vout_filt) = 3.217 V
I: I(V8:p) = 7.157 uA

~~~~~~~~~~~~~~~~~~~~~~~~~~~~~~~~~
Post-Transient Simulation Summary
~~~~~~~~~~~~~~~~~~~~~~~~~~~~~~~~~
   -   To further speed up simulation, consider
          add ++aps on command line
   -   Non-default settings that could significantly slow down simulation
          errpreset = conservative, default moderate
          reltol = 10e-06, default 100e-06 (conservative)
~~~~~~~~~~~~~~~~~~~~~~~~~~~~~~~~~


During simulation, the CPU load for active processors is :
         0 (35.0 %)      1 (16.1 %)      2 (7.6 %)       3 (31.5 %)
         4 (59.5 %)      5 (82.3 %)      6 (22.2 %)      7 (13.2 %)
         8 (17.7 %)      9 (32.4 %)     10 (16.8 %)     11 (5.2 %)
        12 (18.6 %)     13 (16.8 %)     14 (18.9 %)     15 (18.0 %)
        16 (25.6 %)     17 (29.4 %)     18 (22.5 %)     19 (45.2 %)
        20 (26.4 %)     21 (23.0 %)     22 (29.9 %)     23 (20.3 %)
        24 (13.8 %)     25 (14.2 %)     26 (14.9 %)     27 (13.7 %)
        28 (21.0 %)     29 (99.9 %)     30 (13.2 %)     31 (9.8 %)
        32 (16.8 %)     33 (14.8 %)     34 (23.7 %)     35 (20.0 %)
        36 (40.6 %)     37 (24.9 %)     38 (14.3 %)     39 (44.1 %)
        40 (12.3 %)     41 (19.5 %)     42 (15.3 %)     43 (6.9 %)
        44 (5.3 %)      45 (18.3 %)     46 (5.8 %)      47 (74.5 %)
        Total: 1191.5%
Initial condition solution time: CPU = 2.263 ms, elapsed = 2.26402 ms.
Intrinsic tran analysis time:    CPU = 363.136 ms, elapsed = 364.879 ms.
Total time required for tran analysis `tran': CPU = 367.903 ms, elapsed = 370.348 ms, util. = 99.3%.
Time accumulated: CPU = 43.985 s, elapsed = 45.9506 s.
Peak resident memory used = 214 Mbytes.


Notice from spectre during transient analysis `tran', during Monte Carlo analysis `mc1'.
    34 warnings suppressed.

finalTimeOP: writing operating point information to rawfile.

Opening the PSF file ../psf/mc1_separate/098/finalTimeOP.info ...
modelParameter: writing model parameter values to rawfile.

Opening the PSF file ../psf/mc1_separate/098/modelParameter.info ...
element: writing instance parameter values to rawfile.

Opening the PSF file ../psf/mc1_separate/098/element.info ...
outputParameter: writing output parameter values to rawfile.

Opening the PSF file ../psf/mc1_separate/098/outputParameter.info ...
designParamVals: writing netlist parameters to rawfile.

Opening the PSFASCII file ../psf/mc1_separate/098/designParamVals.info ...
primitives: writing primitives to rawfile.

Opening the PSFASCII file ../psf/mc1_separate/098/primitives.info.primitives ...
subckts: writing subcircuits to rawfile.

Opening the PSFASCII file ../psf/mc1_separate/098/subckts.info.subckts ...
    mc1: iteration = 98            (98 %), step = 1            (1.01 %)
99  98.99% 

*****************************************************************************************
* 
* INFO: AMS_processOption = C35B4C3
* 
* INFO: Valid Modules  PIP VG5 HIRES
* 
*****************************************************************************************


Notice from spectre during Monte Carlo analysis `mc1'.
    V8: `period' has the unusually large value of 100 s.


***********************************************
Transient Analysis `tran': time = (0 s -> 50 s)
***********************************************

Opening the PSF file ../psf/mc1_separate/099/tran.tran.tran ...

Warning from spectre during check, during IC analysis, during transient analysis `tran', during Monte Carlo analysis `mc1'.
    WARNING (CMI-2943): Parameter checks have been ignored because the valid value for parameter 'trise' could not be found in 'C1'.
    WARNING (CMI-2943): Parameter checks have been ignored because the valid value for parameter 'trise' could not be found in 'I0.R2.CM'.
    WARNING (CMI-2943): Parameter checks have been ignored because the valid value for parameter 'trise' could not be found in 'I0.R2.CS1'.
    WARNING (CMI-2943): Parameter checks have been ignored because the valid value for parameter 'trise' could not be found in 'I0.R2.CS0'.
    WARNING (CMI-2943): Parameter checks have been ignored because the valid value for parameter 'trise' could not be found in 'I0.C3.C1'.
        Further occurrences of this warning will be suppressed.

Convergence achieved in 12 iterations.
DC simulation time: CPU = 2.152 ms, elapsed = 2.15006 ms.
Important parameter values:
    start = 0 s
    outputstart = 0 s
    stop = 50 s
    step = 50 ms
    maxstep = 500 ms
    ic = all
    useprevic = no
    skipdc = no
    reltol = 10e-06
    abstol(V) = 1 uV
    abstol(I) = 1 pA
    temp = 85 C
    tnom = 27 C
    tempeffects = all
    errpreset = conservative
    method = gear2only
    lteratio = 10
    relref = alllocal
    cmin = 0 F
    gmin = 1 pS
    rabsshort = 1 mOhm


Notice from spectre during transient analysis `tran', during Monte Carlo analysis `mc1'.
    Multithreading is disabled due to the size of the design being too small.


Output and IC/nodeset summary:
                 save   8       (current)
                 save   87      (voltage)

    tran: time = 1.268 s     (2.54 %), step = 499.1 ms     (998 m%)
    tran: time = 3.768 s     (7.54 %), step = 500 ms          (1 %)
    tran: time = 6.268 s     (12.5 %), step = 500 ms          (1 %)
    tran: time = 8.768 s     (17.5 %), step = 500 ms          (1 %)
    tran: time = 11.27 s     (22.5 %), step = 500 ms          (1 %)
    tran: time = 13.77 s     (27.5 %), step = 500 ms          (1 %)
    tran: time = 16.27 s     (32.5 %), step = 500 ms          (1 %)
    tran: time = 18.77 s     (37.5 %), step = 500 ms          (1 %)
    tran: time = 21.27 s     (42.5 %), step = 500 ms          (1 %)
    tran: time = 23.77 s     (47.5 %), step = 500 ms          (1 %)
    tran: time = 26.27 s     (52.5 %), step = 500 ms          (1 %)
    tran: time = 28.77 s     (57.5 %), step = 500 ms          (1 %)
    tran: time = 31.27 s     (62.5 %), step = 500 ms          (1 %)
    tran: time = 33.77 s     (67.5 %), step = 500 ms          (1 %)
    tran: time = 36.27 s     (72.5 %), step = 500 ms          (1 %)
    tran: time = 38.77 s     (77.5 %), step = 500 ms          (1 %)
    tran: time = 41.27 s     (82.5 %), step = 500 ms          (1 %)
    tran: time = 43.77 s     (87.5 %), step = 500 ms          (1 %)
    tran: time = 46.27 s     (92.5 %), step = 500 ms          (1 %)
    tran: time = 48.77 s     (97.5 %), step = 500 ms          (1 %)
Number of accepted tran steps =             678

Maximum value achieved for any signal of each quantity: 
V: V(S<0>) = 3.3 V
I: I(V8:p) = 7.098 uA
Maximum value of each quantity, excluding Verilog-A modules or dangling current sources:
V: V(vout_filt) = 3.197 V
I: I(V8:p) = 7.098 uA

~~~~~~~~~~~~~~~~~~~~~~~~~~~~~~~~~
Post-Transient Simulation Summary
~~~~~~~~~~~~~~~~~~~~~~~~~~~~~~~~~
   -   To further speed up simulation, consider
          add ++aps on command line
   -   Non-default settings that could significantly slow down simulation
          errpreset = conservative, default moderate
          reltol = 10e-06, default 100e-06 (conservative)
~~~~~~~~~~~~~~~~~~~~~~~~~~~~~~~~~


During simulation, the CPU load for active processors is :
         0 (35.6 %)      1 (16.1 %)      2 (7.6 %)       3 (31.2 %)
         4 (58.9 %)      5 (82.5 %)      6 (22.1 %)      7 (13.3 %)
         8 (17.6 %)      9 (32.1 %)     10 (17.5 %)     11 (5.3 %)
        12 (18.5 %)     13 (16.9 %)     14 (18.9 %)     15 (17.9 %)
        16 (25.3 %)     17 (29.7 %)     18 (23.2 %)     19 (44.9 %)
        20 (26.2 %)     21 (22.8 %)     22 (29.7 %)     23 (20.5 %)
        24 (13.7 %)     25 (14.1 %)     26 (14.8 %)     27 (13.6 %)
        28 (20.9 %)     29 (99.9 %)     30 (14.0 %)     31 (9.8 %)
        32 (17.2 %)     33 (15.1 %)     34 (23.5 %)     35 (19.9 %)
        36 (41.1 %)     37 (24.7 %)     38 (14.2 %)     39 (43.7 %)
        40 (13.0 %)     41 (19.3 %)     42 (15.2 %)     43 (6.8 %)
        44 (5.3 %)      45 (18.2 %)     46 (5.8 %)      47 (74.6 %)
        Total: 1192.7%
Initial condition solution time: CPU = 2.202 ms, elapsed = 2.2049 ms.
Intrinsic tran analysis time:    CPU = 358.452 ms, elapsed = 359.62 ms.
Total time required for tran analysis `tran': CPU = 362.958 ms, elapsed = 364.794 ms, util. = 99.5%.
Time accumulated: CPU = 44.3841 s, elapsed = 46.3629 s.
Peak resident memory used = 214 Mbytes.


Notice from spectre during transient analysis `tran', during Monte Carlo analysis `mc1'.
    34 warnings suppressed.

finalTimeOP: writing operating point information to rawfile.

Opening the PSF file ../psf/mc1_separate/099/finalTimeOP.info ...
modelParameter: writing model parameter values to rawfile.

Opening the PSF file ../psf/mc1_separate/099/modelParameter.info ...
element: writing instance parameter values to rawfile.

Opening the PSF file ../psf/mc1_separate/099/element.info ...
outputParameter: writing output parameter values to rawfile.

Opening the PSF file ../psf/mc1_separate/099/outputParameter.info ...
designParamVals: writing netlist parameters to rawfile.

Opening the PSFASCII file ../psf/mc1_separate/099/designParamVals.info ...
primitives: writing primitives to rawfile.

Opening the PSFASCII file ../psf/mc1_separate/099/primitives.info.primitives ...
subckts: writing subcircuits to rawfile.

Opening the PSFASCII file ../psf/mc1_separate/099/subckts.info.subckts ...
    mc1: iteration = 99            (99 %), step = 1            (1.01 %)
100 100.00% 

*****************************************************************************************
* 
* INFO: AMS_processOption = C35B4C3
* 
* INFO: Valid Modules  PIP VG5 HIRES
* 
*****************************************************************************************


Notice from spectre during Monte Carlo analysis `mc1'.
    V8: `period' has the unusually large value of 100 s.


***********************************************
Transient Analysis `tran': time = (0 s -> 50 s)
***********************************************

Opening the PSF file ../psf/mc1_separate/100/tran.tran.tran ...

Warning from spectre during check, during IC analysis, during transient analysis `tran', during Monte Carlo analysis `mc1'.
    WARNING (CMI-2943): Parameter checks have been ignored because the valid value for parameter 'trise' could not be found in 'C1'.
    WARNING (CMI-2943): Parameter checks have been ignored because the valid value for parameter 'trise' could not be found in 'I0.R2.CM'.
    WARNING (CMI-2943): Parameter checks have been ignored because the valid value for parameter 'trise' could not be found in 'I0.R2.CS1'.
    WARNING (CMI-2943): Parameter checks have been ignored because the valid value for parameter 'trise' could not be found in 'I0.R2.CS0'.
    WARNING (CMI-2943): Parameter checks have been ignored because the valid value for parameter 'trise' could not be found in 'I0.C3.C1'.
        Further occurrences of this warning will be suppressed.

Convergence achieved in 12 iterations.
DC simulation time: CPU = 2.314 ms, elapsed = 2.31409 ms.
Important parameter values:
    start = 0 s
    outputstart = 0 s
    stop = 50 s
    step = 50 ms
    maxstep = 500 ms
    ic = all
    useprevic = no
    skipdc = no
    reltol = 10e-06
    abstol(V) = 1 uV
    abstol(I) = 1 pA
    temp = 85 C
    tnom = 27 C
    tempeffects = all
    errpreset = conservative
    method = gear2only
    lteratio = 10
    relref = alllocal
    cmin = 0 F
    gmin = 1 pS
    rabsshort = 1 mOhm


Notice from spectre during transient analysis `tran', during Monte Carlo analysis `mc1'.
    Multithreading is disabled due to the size of the design being too small.


Output and IC/nodeset summary:
                 save   8       (current)
                 save   87      (voltage)

    tran: time = 1.725 s     (3.45 %), step = 500 ms          (1 %)
    tran: time = 4.225 s     (8.45 %), step = 500 ms          (1 %)
    tran: time = 6.725 s     (13.5 %), step = 500 ms          (1 %)
    tran: time = 9.225 s     (18.5 %), step = 500 ms          (1 %)
    tran: time = 11.73 s     (23.5 %), step = 500 ms          (1 %)
    tran: time = 14.23 s     (28.5 %), step = 500 ms          (1 %)
    tran: time = 16.73 s     (33.5 %), step = 500 ms          (1 %)
    tran: time = 19.23 s     (38.5 %), step = 500 ms          (1 %)
    tran: time = 21.73 s     (43.5 %), step = 500 ms          (1 %)
    tran: time = 24.23 s     (48.5 %), step = 500 ms          (1 %)
    tran: time = 26.73 s     (53.5 %), step = 500 ms          (1 %)
    tran: time = 29.23 s     (58.5 %), step = 500 ms          (1 %)
    tran: time = 31.73 s     (63.5 %), step = 500 ms          (1 %)
    tran: time = 34.23 s     (68.5 %), step = 500 ms          (1 %)
    tran: time = 36.73 s     (73.5 %), step = 500 ms          (1 %)
    tran: time = 39.23 s     (78.5 %), step = 500 ms          (1 %)
    tran: time = 41.73 s     (83.5 %), step = 500 ms          (1 %)
    tran: time = 44.23 s     (88.5 %), step = 500 ms          (1 %)
    tran: time = 46.73 s     (93.5 %), step = 500 ms          (1 %)
    tran: time = 49.23 s     (98.5 %), step = 500 ms          (1 %)
Number of accepted tran steps =             680

Maximum value achieved for any signal of each quantity: 
V: V(S<0>) = 3.3 V
I: I(V8:p) = 7.479 uA
Maximum value of each quantity, excluding Verilog-A modules or dangling current sources:
V: V(vout_filt) = 3.2 V
I: I(V8:p) = 7.479 uA

~~~~~~~~~~~~~~~~~~~~~~~~~~~~~~~~~
Post-Transient Simulation Summary
~~~~~~~~~~~~~~~~~~~~~~~~~~~~~~~~~
   -   To further speed up simulation, consider
          add ++aps on command line
   -   Non-default settings that could significantly slow down simulation
          errpreset = conservative, default moderate
          reltol = 10e-06, default 100e-06 (conservative)
~~~~~~~~~~~~~~~~~~~~~~~~~~~~~~~~~


During simulation, the CPU load for active processors is :
         0 (36.2 %)      1 (16.1 %)      2 (7.5 %)       3 (30.9 %)
         4 (59.2 %)      5 (82.7 %)      6 (21.9 %)      7 (13.2 %)
         8 (17.5 %)      9 (31.8 %)     10 (17.5 %)     11 (5.4 %)
        12 (18.5 %)     13 (17.7 %)     14 (18.7 %)     15 (17.8 %)
        16 (25.3 %)     17 (29.6 %)     18 (23.8 %)     19 (44.5 %)
        20 (26.0 %)     21 (22.6 %)     22 (29.5 %)     23 (21.3 %)
        24 (13.7 %)     25 (14.0 %)     26 (14.6 %)     27 (13.5 %)
        28 (20.7 %)     29 (99.9 %)     30 (14.8 %)     31 (9.7 %)
        32 (17.0 %)     33 (15.7 %)     34 (23.3 %)     35 (19.7 %)
        36 (41.6 %)     37 (24.5 %)     38 (14.1 %)     39 (43.4 %)
        40 (13.2 %)     41 (19.7 %)     42 (15.2 %)     43 (6.8 %)
        44 (5.2 %)      45 (18.1 %)     46 (5.7 %)      47 (74.9 %)
        Total: 1194.2%
Initial condition solution time: CPU = 2.357 ms, elapsed = 2.35891 ms.
Intrinsic tran analysis time:    CPU = 373.439 ms, elapsed = 375.522 ms.
Total time required for tran analysis `tran': CPU = 378.303 ms, elapsed = 381.058 ms, util. = 99.3%.
Time accumulated: CPU = 44.8001 s, elapsed = 46.7932 s.
Peak resident memory used = 214 Mbytes.


Notice from spectre during transient analysis `tran', during Monte Carlo analysis `mc1'.
    34 warnings suppressed.

finalTimeOP: writing operating point information to rawfile.

Opening the PSF file ../psf/mc1_separate/100/finalTimeOP.info ...
modelParameter: writing model parameter values to rawfile.

Opening the PSF file ../psf/mc1_separate/100/modelParameter.info ...
element: writing instance parameter values to rawfile.

Opening the PSF file ../psf/mc1_separate/100/element.info ...
outputParameter: writing output parameter values to rawfile.

Opening the PSF file ../psf/mc1_separate/100/outputParameter.info ...
designParamVals: writing netlist parameters to rawfile.

Opening the PSFASCII file ../psf/mc1_separate/100/designParamVals.info ...
primitives: writing primitives to rawfile.

Opening the PSFASCII file ../psf/mc1_separate/100/primitives.info.primitives ...
subckts: writing subcircuits to rawfile.

Opening the PSFASCII file ../psf/mc1_separate/100/subckts.info.subckts ...
    mc1: iteration = 100          (100 %), step = 1            (1.01 %)
Total time required for montecarlo analysis `mc1': CPU = 44.3765 s, elapsed = 45.7637 s, util. = 97%.
Time accumulated: CPU = 44.8262 s, elapsed = 46.8317 s.
Peak resident memory used = 214 Mbytes.

Licensing Information:
Lic Summary:
[16:52:30.431874] Cdslmd servers:3000@lic08.ug.kth.se:29000@lic06.ug.kth.se
[16:52:30.431906] Feature usage summary:
[16:52:30.431907] Virtuoso_Multi_mode_Simulation


Aggregate audit (4:52:30 PM, Wed Apr 15, 2026):
Time used: CPU = 44.8 s, elapsed = 46.8 s, util. = 95.7%.
Time spent in licensing: elapsed = 60.1 ms.
Peak memory used = 215 Mbytes.
Simulation started at: 4:51:43 PM, Wed Apr 15, 2026, ended at: 4:52:30 PM, Wed Apr 15, 2026, with elapsed time (wall clock): 46.8 s.
spectre completes with 0 errors, 522 warnings, and 310 notices.
