
Spectre (R) Circuit Simulator
Version 24.1.0.288.isr5 64bit -- 3 Apr 2025
Copyright (C) 1989-2025 Cadence Design Systems, Inc. All rights reserved worldwide. Cadence and Spectre are registered trademarks of Cadence Design Systems, Inc. All others are the property of their respective holders.

Includes RSA BSAFE(R) Cryptographic or Security Protocol Software from RSA Security, Inc.

User: davidevi   Host: il2244vt26_davidevi   HostID: 11AC2C00   PID: 1052327
Memory  available: 3.0407 TB  physical: 3.2467 TB
Linux   : Rocky Linux release 8.10 (Green Obsidian)
CPU Type: Intel(R) Xeon(R) CPU E7-8857 v2 @ 3.00GHz
        Socket: Processors [Frequency]
        0:       0 [2999.9],  1 [1200.0],  2 [1200.0],  3 [1200.0],  4 [2999.9]
                 5 [2999.9],  6 [1200.0],  7 [1200.0],  8 [1200.0],  9 [1200.0]
                10 [1200.0], 11 [2999.9]
        1:      12 [2999.9], 13 [2999.9], 14 [1200.0], 15 [1200.0], 16 [1200.0]
                17 [2999.9], 18 [3600.0], 19 [1200.0], 20 [1200.0], 21 [1200.0]
                22 [3600.0], 23 [3100.0]
        2:      24 [1200.0], 25 [1200.0], 26 [1200.0], 27 [1200.0], 28 [3600.0]
                29 [2700.0], 30 [1200.0], 31 [3408.2], 32 [3600.0], 33 [1200.0]
                34 [3408.2], 35 [1200.0]
        3:      36 [2800.0], 37 [1200.0], 38 [2600.0], 39 [2999.9], 40 [2400.0]
                41 [2500.0], 42 [2999.9], 43 [1200.0], 44 [2500.0], 45 [2999.9]
                46 [2999.9], 47 [1200.0]
        
System load averages (1min, 5min, 15min) : 27.5 %, 21.8 %, 17.9 %
HPC is enabled


Simulating `input.scs' on il2244vt26_davidevi at 9:09:29 AM, Thur Apr 16, 2026 (process id: 1052327).
Current working directory: /home/davidevi/Desktop/myproject/Sim/VGA/VGA_1_tb/adexl/results/data/MonteCarlo.3/15/Linerity_MC/groupRunDataDir/netlist
Command line:
    /opt/tools/cadence/installs/SPECTRE241/tools/bin/spectre -64  \
        input.scs +escchars +log ../psf/spectre.out -format psfbin  \
        +rtsf -raw ../psf +aps +mt +lqtimeout 900 -maxw 5 -maxn 5  \
        +param /opt/pdk/ams/410/spectre/ams_range.lmts -env ade  \
        -ahdllibdir  \
        /home/davidevi/Desktop/myproject/Sim/VGA/VGA_1_tb/adexl/results/data/MonteCarlo.3/sharedData/Job473/ahdl/input.ahdlSimDB  \
        +logstatus  \
        +adespetkn=0001089D13A302B663E41FB550AF0DF415A679A322D5069144BF588C12F604E07EF416DC01A319B562BB63D34AF10CB845A33ACD1FD7358905DC71D651ED4F925FF179D15D9175FF34986BDD0AF002BA50FD7FD707E002A700AC1C8618F746EA0EAB79D128F874D3349879D118F874D334981031BFB0D39B5D78000036B1

Simulation Id: xkFurX1DAZrTcnki
Licensing Information:
[09:09:29.121834] Configured Lic search path (24.01-s002): 3000@lic08.ug.kth.se:29000@lic06.ug.kth.se

Licensing Information:
[09:09:29.401369] Periodic Lic check successful

Loading /opt/tools/cadence/installs/SPECTRE241/tools.lnx86/cmi/lib/64bit/5.0/libinfineon_sh.so ...
Loading /opt/tools/cadence/installs/SPECTRE241/tools.lnx86/cmi/lib/64bit/5.0/libphilips_I_sh.so ...
Loading /opt/tools/cadence/installs/SPECTRE241/tools.lnx86/cmi/lib/64bit/5.0/libphilips_sh.so ...
Loading /opt/tools/cadence/installs/SPECTRE241/tools.lnx86/cmi/lib/64bit/5.0/libsparam_sh.so ...
Loading /opt/tools/cadence/installs/SPECTRE241/tools.lnx86/cmi/lib/64bit/5.0/libstmodels_sh.so ...

Warning from spectre.
    WARNING (SPECTRE-691): This CPU processor does not support x86 advanced vector extensions instructions. This may affect math operations and slow down the simulation.

Reading file:  /home/davidevi/Desktop/myproject/Sim/VGA/VGA_1_tb/adexl/results/data/MonteCarlo.3/15/Linerity_MC/groupRunDataDir/netlist/input.scs
Reading file:  /opt/pdk/ams/410/spectre/ams_range.lmts

Warning from spectre during read of parameter soft limits file `/opt/pdk/ams/410/spectre/ams_range.lmts', during circuit read-in.
    WARNING (SPECTRE-8360): line 1511: `ac' is an undefined primitive device.
    WARNING (SPECTRE-8360): line 1512: `ac' is an undefined primitive device.
    WARNING (SPECTRE-8360): line 1513: `ac' is an undefined primitive device.
    WARNING (SPECTRE-8360): line 1514: `ac' is an undefined primitive device.
    WARNING (SPECTRE-8360): line 1515: `ac' is an undefined primitive device.
        Further occurrences of this warning will be suppressed.

Reading file:  /opt/tools/cadence/installs/SPECTRE241/tools.lnx86/spectre/etc/configs/spectre.cfg
Reading file:  /opt/pdk/ams/410/spectre/c35/soac/soac.scs
Reading file:  /opt/pdk/ams/410/spectre/c35/soac/processOption.scs
Reading file:  /opt/pdk/ams/410/spectre/c35/soac/process.scs
Reading file:  /opt/pdk/ams/410/spectre/c35/soac/soac.va

Warning from spectre during AHDL read-in.
    WARNING (VACOMP-2435): The environment variable CDS_AHDLCMI_ENABLE is no longer supported. Therefore, the simulator will use the default compiled C code flow.

Reading link:  /opt/tools/cadence/installs/SPECTRE241/tools.lnx86/spectre/etc/ahdl/constants.h
Reading file:  /opt/tools/cadence/installs/SPECTRE241/tools.lnx86/spectre/etc/ahdl/constants.vams
Reading link:  /opt/tools/cadence/installs/SPECTRE241/tools.lnx86/spectre/etc/ahdl/discipline.h
Reading file:  /opt/tools/cadence/installs/SPECTRE241/tools.lnx86/spectre/etc/ahdl/disciplines.vams
Reading file:  /opt/pdk/ams/410/spectre/c35/processOption/C35B4C3.scs
Reading file:  /opt/pdk/ams/410/spectre/c35/soac/cmos53.scs
Reading file:  /opt/pdk/ams/410/spectre/c35/soac/res.scs
Reading file:  /opt/pdk/ams/410/spectre/c35/soac/cap.scs
Reading file:  /opt/pdk/ams/410/spectre/c35/soac/bip.scs
Reading file:  /opt/pdk/ams/410/spectre/c35/soac/ind.scs
Reading file:  /opt/pdk/ams/410/spectre/c35/soac/esddiode.scs
Time for NDB Parsing: CPU = 160.003 ms, elapsed = 316.921 ms.
Time accumulated: CPU = 365.464 ms, elapsed = 316.923 ms.
Peak resident memory used = 175 Mbytes.

Existing shared object for module modn_ahdl is up to date.
Installed compiled interface for modn_ahdl.
Existing shared object for module modp_ahdl is up to date.
Installed compiled interface for modp_ahdl.
Existing shared object for module cpoly_ahdl is up to date.
Installed compiled interface for cpoly_ahdl.
Existing shared object for module rpolyh_ahdl is up to date.
Installed compiled interface for rpolyh_ahdl.
Existing shared object for module bsource_19b458 is up to date.
Installed compiled interface for bsource_19b458.
Time for Elaboration: CPU = 53.611 ms, elapsed = 55.7959 ms.
Time accumulated: CPU = 419.193 ms, elapsed = 372.835 ms.
Peak resident memory used = 188 Mbytes.


Notice from spectre during hierarchy flattening.
    The value 'psf' specified for the 'checklimitdest' option will no longer be supported in future releases. Use 'spectre -h' to see other recommended values for the 'checklimitdest' option.


*****************************************************************************************
* 
* INFO: AMS_processOption = C35B4C3
* 
* INFO: Valid Modules  PIP VG5 HIRES
* 
*****************************************************************************************


Time for EDB Visiting: CPU = 8.089 ms, elapsed = 8.10599 ms.
Time accumulated: CPU = 427.438 ms, elapsed = 381.095 ms.
Peak resident memory used = 191 Mbytes.

Loading /opt/tools/cadence/installs/SPECTRE241/tools.lnx86/mdl/lib/64bit/libSpectreEH_sh.so ...

Warning from spectre during initial setup.
    WARNING (SPECTRE-16460): SOAC_cvarm_vspsub:Specified subcircuit master `cvarm' was not found.
    WARNING (SPECTRE-16462): SOAC_cvarm_vspsub:Error in specification of subcircuit master. Assert is ignored.
    WARNING (SPECTRE-16460): SOAC_cvarm_vbs:Specified subcircuit master `cvarm' was not found.
    WARNING (SPECTRE-16462): SOAC_cvarm_vbs:Error in specification of subcircuit master. Assert is ignored.
    WARNING (SPECTRE-16460): SOAC_cvarm_vgb:Specified subcircuit master `cvarm' was not found.
    WARNING (SPECTRE-16462): SOAC_cvarm_vgb:Error in specification of subcircuit master. Assert is ignored.
    WARNING (SPECTRE-16460): SOAC_cvart_vspsub:Specified subcircuit master `cvart' was not found.
    WARNING (SPECTRE-16462): SOAC_cvart_vspsub:Error in specification of subcircuit master. Assert is ignored.
    WARNING (SPECTRE-16460): SOAC_cvart_vbs:Specified subcircuit master `cvart' was not found.
        Further occurrences of this warning will be suppressed.
    WARNING (SPECTRE-16462): SOAC_cvart_vbs:Error in specification of subcircuit master. Assert is ignored.
        Further occurrences of this warning will be suppressed.
Notice from spectre during topology check.
    Only one connection to the following 54 nodes:
        I0.MN6.psub!
        I0.MN5.psub!
        I0.MN4.psub!
        I0.MN3.psub!
        I0.MN2.psub!
        Further occurrences of this notice will be suppressed.
Notice from spectre during initial setup.
    Multithreading is disabled due to the size of the design being too small.


Netlist title:
        // Point Netlist Generated on: Apr 16 09:09:29 2026


Global user options:
         psfversion = 1.4.0
            vabstol = 1e-06
            iabstol = 1e-12
               temp = 85
           homotopy = 5
              limit = delta
         compatible = spice2
               gmin = 1e-12
             rforce = 1
           maxnotes = 5
           maxwarns = 5
             digits = 5
               cols = 80
             pivrel = 0.001
           sensfile = ../psf/sens.output
     checklimitdest = psf
     enable_pre_ver = yes
      ignorezerovar = yes
               save = allpub
             reltol = 0.0001
               tnom = 27
             scalem = 1
              scale = 1

Scoped user options:

Circuit inventory:
              nodes 88
            bsim3v3 35    
     bsource_19b458 2     
          capacitor 38    
         cpoly_ahdl 17    
            isource 1     
          modn_ahdl 19    
          modp_ahdl 16    
           resistor 1     
        rpolyh_ahdl 2     
            vsource 8     

Analysis and control statement inventory:
                 dc 1     
               info 8     
         montecarlo 1     
               tran 1     

Output statements:
             .probe 0     
           .measure 0     
               save 0     

Design checks inventory:
          paramtest 55    
             assert 175   


Notice from spectre during initial setup.
    APS enabled.
    1 notice suppressed.
    72 warnings suppressed.

Time for parsing: CPU = 17.534 ms, elapsed = 548.141 ms.
Time accumulated: CPU = 445.065 ms, elapsed = 929.328 ms.
Peak resident memory used = 198 Mbytes.

~~~~~~~~~~~~~~~~~~~~~~
Pre-Simulation Summary
~~~~~~~~~~~~~~~~~~~~~~
   -   (APS) Multi-threading. The recommended number of threads is 1, consider adding +mt=1 on command line.
~~~~~~~~~~~~~~~~~~~~~~

*************************************************
Monte Carlo Analysis `mc1': iteration = (1 -> 50)
*************************************************
Important parameter values:
    seed = 12345
    sampling = lds
    variations = all
    firstrun = 1
    numruns = 50
    nullmfactorcorrelation = no
    donominal = yes
    method = standard

**** Performing nominal run for `mc1'

******************
DC Analysis `dcOp'
******************

Notice from spectre during DC analysis `dcOp', during Monte Carlo analysis `mc1'.
    No checklimit analysis defined for asserts. A default checklimit analysis 'SpectreChecklimitAnal' has been created with all asserts enabled.


Opening the PSF file ../psf/nom/dcOp.dc ...
Important parameter values:
    reltol = 100e-06
    abstol(V) = 1 uV
    abstol(I) = 1 pA
    temp = 85 C
    tnom = 27 C
    tempeffects = all
    gmindc = 1 pS
    rabsshort = 1 mOhm

Notice from spectre during DC analysis `dcOp', during Monte Carlo analysis `mc1'.
    Bad pivoting is found during DC analysis. Option dc_pivot_check=yes is recommended for possible improvement of convergence.


Maximum value achieved for any signal of each quantity: 
V: V(S<0>) = 3.3 V
I: I(V0:p) = 6.445 uA
Maximum value of each quantity, excluding Verilog-A modules or dangling current sources:
V: V(net1) = 1.6 V
I: I(V0:p) = 6.445 uA

Warning from spectre during check, during DC analysis `dcOp', during Monte Carlo analysis `mc1'.
    WARNING (CMI-2943): Parameter checks have been ignored because the valid value for parameter 'trise' could not be found in 'C1'.
    WARNING (CMI-2943): Parameter checks have been ignored because the valid value for parameter 'trise' could not be found in 'I0.R2.CM'.
    WARNING (CMI-2943): Parameter checks have been ignored because the valid value for parameter 'trise' could not be found in 'I0.R2.CS1'.
    WARNING (CMI-2943): Parameter checks have been ignored because the valid value for parameter 'trise' could not be found in 'I0.R2.CS0'.
    WARNING (CMI-2943): Parameter checks have been ignored because the valid value for parameter 'trise' could not be found in 'I0.C8<3>.C1'.
        Further occurrences of this warning will be suppressed.

Convergence achieved in 17 iterations.
DC simulation time: CPU = 77.446 ms, elapsed = 82.4471 ms.
Total time required for dc analysis `dcOp': CPU = 77.543 ms, elapsed = 82.5422 ms, util. = 93.9%.
Time accumulated: CPU = 546 ms, elapsed = 1.0368 s.
Peak resident memory used = 207 Mbytes.


Notice from spectre during Monte Carlo analysis `mc1'.
    34 warnings suppressed.

dcOpInfo: writing operating point information to rawfile.

Opening the PSF file ../psf/nom/dcOpInfo.info ...

************************************************
Transient Analysis `tran': time = (0 s -> 40 ms)
************************************************

Notice from spectre during IC analysis, during transient analysis `tran', during Monte Carlo analysis `mc1'.
    Bad pivoting is found during DC analysis. Option dc_pivot_check=yes is recommended for possible improvement of convergence.
Warning from spectre during check, during IC analysis, during transient analysis `tran', during Monte Carlo analysis `mc1'.
    WARNING (CMI-2943): Parameter checks have been ignored because the valid value for parameter 'trise' could not be found in 'C1'.
    WARNING (CMI-2943): Parameter checks have been ignored because the valid value for parameter 'trise' could not be found in 'I0.R2.CM'.
    WARNING (CMI-2943): Parameter checks have been ignored because the valid value for parameter 'trise' could not be found in 'I0.R2.CS1'.
    WARNING (CMI-2943): Parameter checks have been ignored because the valid value for parameter 'trise' could not be found in 'I0.R2.CS0'.
    WARNING (CMI-2943): Parameter checks have been ignored because the valid value for parameter 'trise' could not be found in 'I0.C8<3>.C1'.
        Further occurrences of this warning will be suppressed.

Convergence achieved in 2 iterations.
DC simulation time: CPU = 950 us, elapsed = 949.86 us.

Opening the PSF file ../psf/nom/tran.tran.tran ...
Important parameter values:
    start = 0 s
    outputstart = 0 s
    stop = 40 ms
    step = 40 us
    maxstep = 400 us
    ic = all
    useprevic = no
    skipdc = no
    reltol = 10e-06
    abstol(V) = 1 uV
    abstol(I) = 1 pA
    temp = 85 C
    tnom = 27 C
    tempeffects = all
    errpreset = conservative
    method = gear2only
    lteratio = 10
    relref = alllocal
    cmin = 0 F
    gmin = 1 pS
    rabsshort = 1 mOhm


Notice from spectre during transient analysis `tran', during Monte Carlo analysis `mc1'.
    Multithreading is disabled due to the size of the design being too small.


Output and IC/nodeset summary:
                 save   8       (current)
                 save   87      (voltage)

    tran: time = 1.02 ms     (2.55 %), step = 48.45 us     (121 m%)
    tran: time = 3.033 ms    (7.58 %), step = 47.42 us     (119 m%)
    tran: time = 5.047 ms    (12.6 %), step = 46.62 us     (117 m%)
    tran: time = 7.013 ms    (17.5 %), step = 49.04 us     (123 m%)
    tran: time = 9.026 ms    (22.6 %), step = 47.91 us     (120 m%)
    tran: time = 11.04 ms    (27.6 %), step = 47 us        (117 m%)
    tran: time = 13.01 ms    (32.5 %), step = 49.69 us     (124 m%)
    tran: time = 15.02 ms    (37.5 %), step = 48.45 us     (121 m%)
    tran: time = 17.03 ms    (42.6 %), step = 47.42 us     (119 m%)
    tran: time = 19.05 ms    (47.6 %), step = 46.62 us     (117 m%)
    tran: time = 21.01 ms    (52.5 %), step = 49.04 us     (123 m%)
    tran: time = 23.03 ms    (57.6 %), step = 47.9 us      (120 m%)
    tran: time = 25.04 ms    (62.6 %), step = 47 us        (117 m%)
    tran: time = 27.01 ms    (67.5 %), step = 49.69 us     (124 m%)
    tran: time = 29.02 ms    (72.5 %), step = 48.45 us     (121 m%)
    tran: time = 31.03 ms    (77.6 %), step = 47.42 us     (119 m%)
    tran: time = 33.05 ms    (82.6 %), step = 46.62 us     (117 m%)
    tran: time = 35.01 ms    (87.5 %), step = 49.04 us     (123 m%)
    tran: time = 37.03 ms    (92.6 %), step = 47.9 us      (120 m%)
    tran: time = 39.04 ms    (97.6 %), step = 47 us        (117 m%)
Number of accepted tran steps =             852

Maximum value achieved for any signal of each quantity: 
V: V(S<0>) = 3.3 V
I: I(V0:p) = 6.446 uA
Maximum value of each quantity, excluding Verilog-A modules or dangling current sources:
V: V(vout_filt) = 1.613 V
I: I(V0:p) = 6.446 uA

~~~~~~~~~~~~~~~~~~~~~~~~~~~~~~~~~
Post-Transient Simulation Summary
~~~~~~~~~~~~~~~~~~~~~~~~~~~~~~~~~
   -   To further speed up simulation, consider
          add ++aps on command line
   -   Non-default settings that could significantly slow down simulation
          errpreset = conservative, default moderate
          reltol = 10e-06, default 100e-06 (conservative)
~~~~~~~~~~~~~~~~~~~~~~~~~~~~~~~~~


During simulation, the CPU load for active processors is :
         0 (2.1 %)       1 (2.8 %)       2 (20.3 %)      3 (28.5 %)
         4 (71.7 %)      5 (100.0 %)     6 (7.7 %)       7 (2.1 %)
         8 (4.2 %)      10 (2.8 %)      11 (100.0 %)    12 (28.6 %)
        13 (72.2 %)     14 (26.7 %)     15 (19.0 %)     16 (4.3 %)
        17 (100.0 %)    18 (50.3 %)     19 (6.2 %)      20 (3.5 %)
        21 (53.5 %)     22 (3.5 %)      23 (35.2 %)     24 (1.4 %)
        25 (28.5 %)     26 (1.4 %)      27 (53.1 %)     28 (6.3 %)
        29 (57.9 %)     30 (7.0 %)      31 (100.0 %)    32 (6.2 %)
        33 (3.5 %)      34 (49.0 %)     35 (2.8 %)      36 (7.7 %)
        37 (36.8 %)     38 (5.6 %)      39 (100.0 %)    40 (2.8 %)
        42 (97.9 %)     43 (1.4 %)      44 (2.8 %)      45 (2.1 %)
        46 (6.9 %)      47 (2.8 %)      
        Total: 1330.9%
Initial condition solution time: CPU = 979 us, elapsed = 980.139 us.
Intrinsic tran analysis time:    CPU = 456.839 ms, elapsed = 458.396 ms.
Total time required for tran analysis `tran': CPU = 459.753 ms, elapsed = 461.862 ms, util. = 99.5%.
Time accumulated: CPU = 1.01389 s, elapsed = 1.50997 s.
Peak resident memory used = 210 Mbytes.


Notice from spectre during transient analysis `tran', during Monte Carlo analysis `mc1'.
    34 warnings suppressed.

finalTimeOP: writing operating point information to rawfile.

Opening the PSF file ../psf/nom/finalTimeOP.info ...
modelParameter: writing model parameter values to rawfile.

Opening the PSF file ../psf/nom/modelParameter.info ...
element: writing instance parameter values to rawfile.

Opening the PSF file ../psf/nom/element.info ...
outputParameter: writing output parameter values to rawfile.

Opening the PSF file ../psf/nom/outputParameter.info ...
designParamVals: writing netlist parameters to rawfile.

Opening the PSFASCII file ../psf/nom/designParamVals.info ...
primitives: writing primitives to rawfile.

Opening the PSFASCII file ../psf/nom/primitives.info.primitives ...
subckts: writing subcircuits to rawfile.

Opening the PSFASCII file ../psf/nom/subckts.info.subckts ...
Opening iteration number and data-directory mapping file:  /home/davidevi/Desktop/myproject/Sim/VGA/VGA_1_tb/adexl/results/data/MonteCarlo.3/15/Linerity_MC/groupRunDataDir/netlist/../psf/mc1.mapping

Statistical parameters:
    Defined process parameters: 629
    Defined mismatch parameters (subckt based): 86
    Non-referenced mismatch parameters: 80
    Number of random variables: 718
    Gaussian truncation for process parameters: 4.00 sigma
    Gaussian truncation for mismatch parameters: 4.00 sigma


Opening the PSF file ../psf/mc1_dcOp.montecarlo ...

Opening the PSF file ../psf/mc1_dcOpInfo.montecarlo ...

Opening the PSF file ../psf/mc1_tran.montecarlo ...

Opening the PSF file ../psf/mc1_finalTimeOP.montecarlo ...

Opening the PSF file ../psf/mc1_modelParameter.montecarlo ...

Opening the PSF file ../psf/mc1_element.montecarlo ...

Opening the PSF file ../psf/mc1_outputParameter.montecarlo ...

Opening the PSF file ../psf/mc1_designParamVals.montecarlo ...

Opening the PSF file ../psf/mc1_primitives.montecarlo ...

Opening the PSF file ../psf/mc1_subckts.montecarlo ...

**** Performing monte carlo loop for `mc1'

1   0.00% 

*****************************************************************************************
* 
* INFO: AMS_processOption = C35B4C3
* 
* INFO: Valid Modules  PIP VG5 HIRES
* 
*****************************************************************************************


******************
DC Analysis `dcOp'
******************

Opening the PSF file ../psf/mc1_separate/001/dcOp.dc ...
Important parameter values:
    reltol = 100e-06
    abstol(V) = 1 uV
    abstol(I) = 1 pA
    temp = 85 C
    tnom = 27 C
    tempeffects = all
    gmindc = 1 pS
    rabsshort = 1 mOhm

Notice from spectre at iteration = 1 during DC analysis `dcOp', during Monte Carlo analysis `mc1'.
    Bad pivoting is found during DC analysis. Option dc_pivot_check=yes is recommended for possible improvement of convergence.


Maximum value achieved for any signal of each quantity: 
V: V(S<0>) = 3.3 V
I: I(V0:p) = 6.244 uA
Maximum value of each quantity, excluding Verilog-A modules or dangling current sources:
V: V(net1) = 1.6 V
I: I(V0:p) = 6.244 uA

Warning from spectre at iteration = 1 during check, during DC analysis `dcOp', during Monte Carlo analysis `mc1'.
    WARNING (CMI-2943): Parameter checks have been ignored because the valid value for parameter 'trise' could not be found in 'C1'.
    WARNING (CMI-2943): Parameter checks have been ignored because the valid value for parameter 'trise' could not be found in 'I0.R2.CM'.
    WARNING (CMI-2943): Parameter checks have been ignored because the valid value for parameter 'trise' could not be found in 'I0.R2.CS1'.
    WARNING (CMI-2943): Parameter checks have been ignored because the valid value for parameter 'trise' could not be found in 'I0.R2.CS0'.
    WARNING (CMI-2943): Parameter checks have been ignored because the valid value for parameter 'trise' could not be found in 'I0.C8<3>.C1'.
        Further occurrences of this warning will be suppressed.

Convergence achieved in 17 iterations.
DC simulation time: CPU = 5.318 ms, elapsed = 6.598 ms.
Total time required for dc analysis `dcOp': CPU = 5.855 ms, elapsed = 7.13205 ms, util. = 82.1%.
Time accumulated: CPU = 1.0965 s, elapsed = 1.61125 s.
Peak resident memory used = 212 Mbytes.


Notice from spectre at iteration = 1 during Monte Carlo analysis `mc1'.
    34 warnings suppressed.

dcOpInfo: writing operating point information to rawfile.

Opening the PSF file ../psf/mc1_separate/001/dcOpInfo.info ...

************************************************
Transient Analysis `tran': time = (0 s -> 40 ms)
************************************************

Opening the PSF file ../psf/mc1_separate/001/tran.tran.tran ...

Notice from spectre at iteration = 1 during IC analysis, during transient analysis `tran', during Monte Carlo analysis `mc1'.
    Bad pivoting is found during DC analysis. Option dc_pivot_check=yes is recommended for possible improvement of convergence.
Warning from spectre at iteration = 1 during check, during IC analysis, during transient analysis `tran', during Monte Carlo analysis `mc1'.
    WARNING (CMI-2943): Parameter checks have been ignored because the valid value for parameter 'trise' could not be found in 'C1'.
    WARNING (CMI-2943): Parameter checks have been ignored because the valid value for parameter 'trise' could not be found in 'I0.R2.CM'.
    WARNING (CMI-2943): Parameter checks have been ignored because the valid value for parameter 'trise' could not be found in 'I0.R2.CS1'.
    WARNING (CMI-2943): Parameter checks have been ignored because the valid value for parameter 'trise' could not be found in 'I0.R2.CS0'.
    WARNING (CMI-2943): Parameter checks have been ignored because the valid value for parameter 'trise' could not be found in 'I0.C8<3>.C1'.
        Further occurrences of this warning will be suppressed.

Convergence achieved in 17 iterations.
DC simulation time: CPU = 2.451 ms, elapsed = 2.4519 ms.
Important parameter values:
    start = 0 s
    outputstart = 0 s
    stop = 40 ms
    step = 40 us
    maxstep = 400 us
    ic = all
    useprevic = no
    skipdc = no
    reltol = 10e-06
    abstol(V) = 1 uV
    abstol(I) = 1 pA
    temp = 85 C
    tnom = 27 C
    tempeffects = all
    errpreset = conservative
    method = gear2only
    lteratio = 10
    relref = alllocal
    cmin = 0 F
    gmin = 1 pS
    rabsshort = 1 mOhm


Notice from spectre at iteration = 1 during transient analysis `tran', during Monte Carlo analysis `mc1'.
    Multithreading is disabled due to the size of the design being too small.


Output and IC/nodeset summary:
                 save   8       (current)
                 save   87      (voltage)

    tran: time = 1.019 ms    (2.55 %), step = 48.55 us     (121 m%)
    tran: time = 3.032 ms    (7.58 %), step = 47.49 us     (119 m%)
    tran: time = 5.046 ms    (12.6 %), step = 46.68 us     (117 m%)
    tran: time = 7.013 ms    (17.5 %), step = 49.13 us     (123 m%)
    tran: time = 9.026 ms    (22.6 %), step = 47.98 us     (120 m%)
    tran: time = 11.04 ms    (27.6 %), step = 47.05 us     (118 m%)
    tran: time = 13.01 ms    (32.5 %), step = 49.78 us     (124 m%)
    tran: time = 15.02 ms    (37.5 %), step = 48.52 us     (121 m%)
    tran: time = 17.03 ms    (42.6 %), step = 47.47 us     (119 m%)
    tran: time = 19.05 ms    (47.6 %), step = 46.66 us     (117 m%)
    tran: time = 21.01 ms    (52.5 %), step = 49.1 us      (123 m%)
    tran: time = 23.03 ms    (57.6 %), step = 47.95 us     (120 m%)
    tran: time = 25.04 ms    (62.6 %), step = 47.03 us     (118 m%)
    tran: time = 27.01 ms    (67.5 %), step = 49.74 us     (124 m%)
    tran: time = 29.02 ms    (72.5 %), step = 48.49 us     (121 m%)
    tran: time = 31.03 ms    (77.6 %), step = 47.45 us     (119 m%)
    tran: time = 33.05 ms    (82.6 %), step = 46.64 us     (117 m%)
    tran: time = 35.01 ms    (87.5 %), step = 49.06 us     (123 m%)
    tran: time = 37.03 ms    (92.6 %), step = 47.92 us     (120 m%)
    tran: time = 39.04 ms    (97.6 %), step = 47.01 us     (118 m%)
Number of accepted tran steps =             851

Maximum value achieved for any signal of each quantity: 
V: V(S<0>) = 3.3 V
I: I(V0:p) = 6.244 uA
Maximum value of each quantity, excluding Verilog-A modules or dangling current sources:
V: V(vout_filt) = 1.614 V
I: I(V0:p) = 6.244 uA

~~~~~~~~~~~~~~~~~~~~~~~~~~~~~~~~~
Post-Transient Simulation Summary
~~~~~~~~~~~~~~~~~~~~~~~~~~~~~~~~~
   -   To further speed up simulation, consider
          add ++aps on command line
   -   Non-default settings that could significantly slow down simulation
          errpreset = conservative, default moderate
          reltol = 10e-06, default 100e-06 (conservative)
~~~~~~~~~~~~~~~~~~~~~~~~~~~~~~~~~


During simulation, the CPU load for active processors is :
         0 (2.6 %)       1 (3.5 %)       2 (20.4 %)      3 (29.6 %)
         4 (52.2 %)      5 (100.0 %)     6 (9.5 %)       7 (18.6 %)
         8 (8.6 %)       9 (1.0 %)      10 (3.0 %)      11 (100.0 %)
        12 (35.4 %)     13 (52.8 %)     14 (31.8 %)     15 (28.6 %)
        16 (3.6 %)      17 (84.7 %)     18 (52.0 %)     19 (5.0 %)
        20 (3.0 %)      21 (51.5 %)     22 (4.0 %)      23 (26.6 %)
        24 (1.5 %)      25 (21.9 %)     26 (1.5 %)      27 (49.2 %)
        28 (22.9 %)     29 (47.0 %)     30 (28.0 %)     31 (100.0 %)
        32 (6.4 %)      33 (2.5 %)      34 (36.3 %)     35 (3.0 %)
        36 (34.2 %)     37 (30.0 %)     38 (8.1 %)      39 (100.0 %)
        40 (2.5 %)      41 (3.1 %)      42 (95.0 %)     43 (2.5 %)
        44 (3.0 %)      45 (2.0 %)      46 (7.0 %)      47 (3.0 %)
        Total: 1338.8%
Initial condition solution time: CPU = 2.486 ms, elapsed = 2.48981 ms.
Intrinsic tran analysis time:    CPU = 452.452 ms, elapsed = 454.536 ms.
Total time required for tran analysis `tran': CPU = 456.88 ms, elapsed = 459.647 ms, util. = 99.4%.
Time accumulated: CPU = 1.55986 s, elapsed = 2.08035 s.
Peak resident memory used = 213 Mbytes.


Notice from spectre during transient analysis `tran', during Monte Carlo analysis `mc1'.
    34 warnings suppressed.

finalTimeOP: writing operating point information to rawfile.

Opening the PSF file ../psf/mc1_separate/001/finalTimeOP.info ...
modelParameter: writing model parameter values to rawfile.

Opening the PSF file ../psf/mc1_separate/001/modelParameter.info ...
element: writing instance parameter values to rawfile.

Opening the PSF file ../psf/mc1_separate/001/element.info ...
outputParameter: writing output parameter values to rawfile.

Opening the PSF file ../psf/mc1_separate/001/outputParameter.info ...
designParamVals: writing netlist parameters to rawfile.

Opening the PSFASCII file ../psf/mc1_separate/001/designParamVals.info ...
primitives: writing primitives to rawfile.

Opening the PSFASCII file ../psf/mc1_separate/001/primitives.info.primitives ...
subckts: writing subcircuits to rawfile.

Opening the PSFASCII file ../psf/mc1_separate/001/subckts.info.subckts ...
2   2.04% 

*****************************************************************************************
* 
* INFO: AMS_processOption = C35B4C3
* 
* INFO: Valid Modules  PIP VG5 HIRES
* 
*****************************************************************************************


******************
DC Analysis `dcOp'
******************

Opening the PSF file ../psf/mc1_separate/002/dcOp.dc ...
Important parameter values:
    reltol = 100e-06
    abstol(V) = 1 uV
    abstol(I) = 1 pA
    temp = 85 C
    tnom = 27 C
    tempeffects = all
    gmindc = 1 pS
    rabsshort = 1 mOhm

Notice from spectre during DC analysis `dcOp', during Monte Carlo analysis `mc1'.
    Bad pivoting is found during DC analysis. Option dc_pivot_check=yes is recommended for possible improvement of convergence.


Maximum value achieved for any signal of each quantity: 
V: V(S<0>) = 3.3 V
I: I(V0:p) = 6.464 uA
Maximum value of each quantity, excluding Verilog-A modules or dangling current sources:
V: V(net1) = 1.6 V
I: I(V0:p) = 6.464 uA

Warning from spectre during check, during DC analysis `dcOp', during Monte Carlo analysis `mc1'.
    WARNING (CMI-2943): Parameter checks have been ignored because the valid value for parameter 'trise' could not be found in 'C1'.
    WARNING (CMI-2943): Parameter checks have been ignored because the valid value for parameter 'trise' could not be found in 'I0.R2.CM'.
    WARNING (CMI-2943): Parameter checks have been ignored because the valid value for parameter 'trise' could not be found in 'I0.R2.CS1'.
    WARNING (CMI-2943): Parameter checks have been ignored because the valid value for parameter 'trise' could not be found in 'I0.R2.CS0'.
    WARNING (CMI-2943): Parameter checks have been ignored because the valid value for parameter 'trise' could not be found in 'I0.C8<3>.C1'.
        Further occurrences of this warning will be suppressed.

Convergence achieved in 17 iterations.
DC simulation time: CPU = 4.429 ms, elapsed = 5.81717 ms.
Total time required for dc analysis `dcOp': CPU = 4.789 ms, elapsed = 6.17599 ms, util. = 77.5%.
Time accumulated: CPU = 1.5987 s, elapsed = 2.13313 s.
Peak resident memory used = 213 Mbytes.


Notice from spectre during Monte Carlo analysis `mc1'.
    34 warnings suppressed.

dcOpInfo: writing operating point information to rawfile.

Opening the PSF file ../psf/mc1_separate/002/dcOpInfo.info ...

************************************************
Transient Analysis `tran': time = (0 s -> 40 ms)
************************************************

Opening the PSF file ../psf/mc1_separate/002/tran.tran.tran ...

Notice from spectre during IC analysis, during transient analysis `tran', during Monte Carlo analysis `mc1'.
    Bad pivoting is found during DC analysis. Option dc_pivot_check=yes is recommended for possible improvement of convergence.
Warning from spectre during check, during IC analysis, during transient analysis `tran', during Monte Carlo analysis `mc1'.
    WARNING (CMI-2943): Parameter checks have been ignored because the valid value for parameter 'trise' could not be found in 'C1'.
    WARNING (CMI-2943): Parameter checks have been ignored because the valid value for parameter 'trise' could not be found in 'I0.R2.CM'.
    WARNING (CMI-2943): Parameter checks have been ignored because the valid value for parameter 'trise' could not be found in 'I0.R2.CS1'.
    WARNING (CMI-2943): Parameter checks have been ignored because the valid value for parameter 'trise' could not be found in 'I0.R2.CS0'.
    WARNING (CMI-2943): Parameter checks have been ignored because the valid value for parameter 'trise' could not be found in 'I0.C8<3>.C1'.
        Further occurrences of this warning will be suppressed.

Convergence achieved in 17 iterations.
DC simulation time: CPU = 2.429 ms, elapsed = 2.42901 ms.
Important parameter values:
    start = 0 s
    outputstart = 0 s
    stop = 40 ms
    step = 40 us
    maxstep = 400 us
    ic = all
    useprevic = no
    skipdc = no
    reltol = 10e-06
    abstol(V) = 1 uV
    abstol(I) = 1 pA
    temp = 85 C
    tnom = 27 C
    tempeffects = all
    errpreset = conservative
    method = gear2only
    lteratio = 10
    relref = alllocal
    cmin = 0 F
    gmin = 1 pS
    rabsshort = 1 mOhm


Notice from spectre during transient analysis `tran', during Monte Carlo analysis `mc1'.
    Multithreading is disabled due to the size of the design being too small.


Output and IC/nodeset summary:
                 save   8       (current)
                 save   87      (voltage)

    tran: time = 1.02 ms     (2.55 %), step = 48.45 us     (121 m%)
    tran: time = 3.033 ms    (7.58 %), step = 47.42 us     (119 m%)
    tran: time = 5 ms        (12.5 %), step = 50 us        (125 m%)
    tran: time = 7.013 ms    (17.5 %), step = 49.02 us     (123 m%)
    tran: time = 9.027 ms    (22.6 %), step = 47.88 us     (120 m%)
    tran: time = 11.04 ms    (27.6 %), step = 46.98 us     (117 m%)
    tran: time = 13.01 ms    (32.5 %), step = 49.65 us     (124 m%)
    tran: time = 15.02 ms    (37.6 %), step = 48.41 us     (121 m%)
    tran: time = 17.03 ms    (42.6 %), step = 47.38 us     (118 m%)
    tran: time = 19 ms       (47.5 %), step = 50 us        (125 m%)
    tran: time = 21.01 ms    (52.5 %), step = 48.98 us     (122 m%)
    tran: time = 23.03 ms    (57.6 %), step = 47.84 us     (120 m%)
    tran: time = 25.04 ms    (62.6 %), step = 46.95 us     (117 m%)
    tran: time = 27.01 ms    (67.5 %), step = 49.59 us     (124 m%)
    tran: time = 29.02 ms    (72.6 %), step = 48.36 us     (121 m%)
    tran: time = 31.03 ms    (77.6 %), step = 47.35 us     (118 m%)
    tran: time = 33 ms       (82.5 %), step = 50 us        (125 m%)
    tran: time = 35.01 ms    (87.5 %), step = 48.92 us     (122 m%)
    tran: time = 37.03 ms    (92.6 %), step = 47.79 us     (119 m%)
    tran: time = 39.04 ms    (97.6 %), step = 46.91 us     (117 m%)
Number of accepted tran steps =             851

Maximum value achieved for any signal of each quantity: 
V: V(S<0>) = 3.3 V
I: I(V0:p) = 6.465 uA
Maximum value of each quantity, excluding Verilog-A modules or dangling current sources:
V: V(vout_filt) = 1.614 V
I: I(V0:p) = 6.465 uA

~~~~~~~~~~~~~~~~~~~~~~~~~~~~~~~~~
Post-Transient Simulation Summary
~~~~~~~~~~~~~~~~~~~~~~~~~~~~~~~~~
   -   To further speed up simulation, consider
          add ++aps on command line
   -   Non-default settings that could significantly slow down simulation
          errpreset = conservative, default moderate
          reltol = 10e-06, default 100e-06 (conservative)
~~~~~~~~~~~~~~~~~~~~~~~~~~~~~~~~~


During simulation, the CPU load for active processors is :
         0 (3.6 %)       1 (3.2 %)       2 (17.5 %)      3 (23.9 %)
         4 (45.7 %)      5 (100.0 %)     6 (8.0 %)       7 (34.9 %)
         8 (11.2 %)      9 (1.2 %)      10 (3.2 %)      11 (100.0 %)
        12 (48.5 %)     13 (43.0 %)     14 (25.4 %)     15 (33.3 %)
        16 (12.4 %)     17 (77.2 %)     18 (52.4 %)     19 (4.3 %)
        20 (2.8 %)      21 (41.3 %)     22 (4.4 %)      23 (21.3 %)
        24 (2.8 %)      25 (19.0 %)     26 (2.0 %)      27 (39.4 %)
        28 (38.1 %)     29 (37.8 %)     30 (42.3 %)     31 (100.0 %)
        32 (5.1 %)      33 (3.2 %)      34 (29.5 %)     35 (3.6 %)
        36 (48.0 %)     37 (24.6 %)     38 (7.7 %)      39 (100.0 %)
        40 (2.0 %)      41 (2.8 %)      42 (96.1 %)     43 (4.4 %)
        44 (2.8 %)      45 (2.4 %)      46 (6.0 %)      47 (2.8 %)
        Total: 1341.0%
Initial condition solution time: CPU = 2.458 ms, elapsed = 2.46 ms.
Intrinsic tran analysis time:    CPU = 453.531 ms, elapsed = 455.573 ms.
Total time required for tran analysis `tran': CPU = 457.642 ms, elapsed = 460.387 ms, util. = 99.4%.
Time accumulated: CPU = 2.06261 s, elapsed = 2.6024 s.
Peak resident memory used = 214 Mbytes.


Notice from spectre during transient analysis `tran', during Monte Carlo analysis `mc1'.
    34 warnings suppressed.

finalTimeOP: writing operating point information to rawfile.

Opening the PSF file ../psf/mc1_separate/002/finalTimeOP.info ...
modelParameter: writing model parameter values to rawfile.

Opening the PSF file ../psf/mc1_separate/002/modelParameter.info ...
element: writing instance parameter values to rawfile.

Opening the PSF file ../psf/mc1_separate/002/element.info ...
outputParameter: writing output parameter values to rawfile.

Opening the PSF file ../psf/mc1_separate/002/outputParameter.info ...
designParamVals: writing netlist parameters to rawfile.

Opening the PSFASCII file ../psf/mc1_separate/002/designParamVals.info ...
primitives: writing primitives to rawfile.

Opening the PSFASCII file ../psf/mc1_separate/002/primitives.info.primitives ...
subckts: writing subcircuits to rawfile.

Opening the PSFASCII file ../psf/mc1_separate/002/subckts.info.subckts ...
3   4.08% 

*****************************************************************************************
* 
* INFO: AMS_processOption = C35B4C3
* 
* INFO: Valid Modules  PIP VG5 HIRES
* 
*****************************************************************************************


******************
DC Analysis `dcOp'
******************

Opening the PSF file ../psf/mc1_separate/003/dcOp.dc ...
Important parameter values:
    reltol = 100e-06
    abstol(V) = 1 uV
    abstol(I) = 1 pA
    temp = 85 C
    tnom = 27 C
    tempeffects = all
    gmindc = 1 pS
    rabsshort = 1 mOhm

Notice from spectre during DC analysis `dcOp', during Monte Carlo analysis `mc1'.
    Bad pivoting is found during DC analysis. Option dc_pivot_check=yes is recommended for possible improvement of convergence.


Maximum value achieved for any signal of each quantity: 
V: V(S<0>) = 3.3 V
I: I(V0:p) = 6.381 uA
Maximum value of each quantity, excluding Verilog-A modules or dangling current sources:
V: V(net1) = 1.6 V
I: I(V0:p) = 6.381 uA

Warning from spectre during check, during DC analysis `dcOp', during Monte Carlo analysis `mc1'.
    WARNING (CMI-2943): Parameter checks have been ignored because the valid value for parameter 'trise' could not be found in 'C1'.
    WARNING (CMI-2943): Parameter checks have been ignored because the valid value for parameter 'trise' could not be found in 'I0.R2.CM'.
    WARNING (CMI-2943): Parameter checks have been ignored because the valid value for parameter 'trise' could not be found in 'I0.R2.CS1'.
    WARNING (CMI-2943): Parameter checks have been ignored because the valid value for parameter 'trise' could not be found in 'I0.R2.CS0'.
    WARNING (CMI-2943): Parameter checks have been ignored because the valid value for parameter 'trise' could not be found in 'I0.C8<3>.C1'.
        Further occurrences of this warning will be suppressed.

Convergence achieved in 18 iterations.
DC simulation time: CPU = 4.891 ms, elapsed = 6.15001 ms.
Total time required for dc analysis `dcOp': CPU = 5.293 ms, elapsed = 6.55103 ms, util. = 80.8%.
Time accumulated: CPU = 2.1025 s, elapsed = 2.65496 s.
Peak resident memory used = 214 Mbytes.


Notice from spectre during Monte Carlo analysis `mc1'.
    34 warnings suppressed.

dcOpInfo: writing operating point information to rawfile.

Opening the PSF file ../psf/mc1_separate/003/dcOpInfo.info ...

************************************************
Transient Analysis `tran': time = (0 s -> 40 ms)
************************************************

Opening the PSF file ../psf/mc1_separate/003/tran.tran.tran ...

Notice from spectre during IC analysis, during transient analysis `tran', during Monte Carlo analysis `mc1'.
    Bad pivoting is found during DC analysis. Option dc_pivot_check=yes is recommended for possible improvement of convergence.
Warning from spectre during check, during IC analysis, during transient analysis `tran', during Monte Carlo analysis `mc1'.
    WARNING (CMI-2943): Parameter checks have been ignored because the valid value for parameter 'trise' could not be found in 'C1'.
    WARNING (CMI-2943): Parameter checks have been ignored because the valid value for parameter 'trise' could not be found in 'I0.R2.CM'.
    WARNING (CMI-2943): Parameter checks have been ignored because the valid value for parameter 'trise' could not be found in 'I0.R2.CS1'.
    WARNING (CMI-2943): Parameter checks have been ignored because the valid value for parameter 'trise' could not be found in 'I0.R2.CS0'.
    WARNING (CMI-2943): Parameter checks have been ignored because the valid value for parameter 'trise' could not be found in 'I0.C8<3>.C1'.
        Further occurrences of this warning will be suppressed.

Convergence achieved in 18 iterations.
DC simulation time: CPU = 2.36 ms, elapsed = 2.36011 ms.
Important parameter values:
    start = 0 s
    outputstart = 0 s
    stop = 40 ms
    step = 40 us
    maxstep = 400 us
    ic = all
    useprevic = no
    skipdc = no
    reltol = 10e-06
    abstol(V) = 1 uV
    abstol(I) = 1 pA
    temp = 85 C
    tnom = 27 C
    tempeffects = all
    errpreset = conservative
    method = gear2only
    lteratio = 10
    relref = alllocal
    cmin = 0 F
    gmin = 1 pS
    rabsshort = 1 mOhm


Notice from spectre during transient analysis `tran', during Monte Carlo analysis `mc1'.
    Multithreading is disabled due to the size of the design being too small.


Output and IC/nodeset summary:
                 save   8       (current)
                 save   87      (voltage)

    tran: time = 1.019 ms    (2.55 %), step = 48.49 us     (121 m%)
    tran: time = 3.033 ms    (7.58 %), step = 47.45 us     (119 m%)
    tran: time = 5.046 ms    (12.6 %), step = 46.65 us     (117 m%)
    tran: time = 7.013 ms    (17.5 %), step = 49.09 us     (123 m%)
    tran: time = 9.026 ms    (22.6 %), step = 47.95 us     (120 m%)
    tran: time = 11.04 ms    (27.6 %), step = 47.03 us     (118 m%)
    tran: time = 13.01 ms    (32.5 %), step = 49.76 us     (124 m%)
    tran: time = 15.02 ms    (37.5 %), step = 48.51 us     (121 m%)
    tran: time = 17.03 ms    (42.6 %), step = 47.47 us     (119 m%)
    tran: time = 19.05 ms    (47.6 %), step = 46.66 us     (117 m%)
    tran: time = 21.01 ms    (52.5 %), step = 49.11 us     (123 m%)
    tran: time = 23.03 ms    (57.6 %), step = 47.97 us     (120 m%)
    tran: time = 25.04 ms    (62.6 %), step = 47.05 us     (118 m%)
    tran: time = 27.01 ms    (67.5 %), step = 49.78 us     (124 m%)
    tran: time = 29.02 ms    (72.5 %), step = 48.53 us     (121 m%)
    tran: time = 31.03 ms    (77.6 %), step = 47.48 us     (119 m%)
    tran: time = 33.05 ms    (82.6 %), step = 46.67 us     (117 m%)
    tran: time = 35.01 ms    (87.5 %), step = 49.13 us     (123 m%)
    tran: time = 37.03 ms    (92.6 %), step = 47.99 us     (120 m%)
    tran: time = 39.04 ms    (97.6 %), step = 47.06 us     (118 m%)
Number of accepted tran steps =             852

Maximum value achieved for any signal of each quantity: 
V: V(S<0>) = 3.3 V
I: I(V0:p) = 6.381 uA
Maximum value of each quantity, excluding Verilog-A modules or dangling current sources:
V: V(vout_filt) = 1.614 V
I: I(V0:p) = 6.381 uA

~~~~~~~~~~~~~~~~~~~~~~~~~~~~~~~~~
Post-Transient Simulation Summary
~~~~~~~~~~~~~~~~~~~~~~~~~~~~~~~~~
   -   To further speed up simulation, consider
          add ++aps on command line
   -   Non-default settings that could significantly slow down simulation
          errpreset = conservative, default moderate
          reltol = 10e-06, default 100e-06 (conservative)
~~~~~~~~~~~~~~~~~~~~~~~~~~~~~~~~~


During simulation, the CPU load for active processors is :
         0 (4.3 %)       1 (3.3 %)       2 (15.2 %)      3 (20.5 %)
         4 (41.3 %)      5 (100.0 %)     6 (7.6 %)       7 (45.2 %)
         8 (12.6 %)      9 (1.0 %)      10 (2.7 %)      11 (100.0 %)
        12 (53.8 %)     13 (36.4 %)     14 (21.5 %)     15 (31.6 %)
        16 (21.9 %)     17 (71.9 %)     18 (52.8 %)     19 (9.2 %)
        20 (2.3 %)      21 (46.9 %)     22 (4.6 %)      23 (18.1 %)
        24 (3.3 %)      25 (26.2 %)     26 (2.3 %)      27 (33.7 %)
        28 (47.9 %)     29 (32.7 %)     30 (51.6 %)     31 (100.0 %)
        32 (5.2 %)      33 (3.3 %)      34 (25.2 %)     35 (3.3 %)
        36 (44.7 %)     37 (21.9 %)     38 (6.7 %)      39 (100.0 %)
        40 (2.3 %)      41 (3.4 %)      42 (95.8 %)     43 (6.0 %)
        44 (2.3 %)      45 (2.0 %)      46 (7.3 %)      47 (3.0 %)
        Total: 1354.8%
Initial condition solution time: CPU = 2.393 ms, elapsed = 2.39396 ms.
Intrinsic tran analysis time:    CPU = 454.946 ms, elapsed = 456.824 ms.
Total time required for tran analysis `tran': CPU = 459.015 ms, elapsed = 461.62 ms, util. = 99.4%.
Time accumulated: CPU = 2.56747 s, elapsed = 3.12547 s.
Peak resident memory used = 214 Mbytes.


Notice from spectre during transient analysis `tran', during Monte Carlo analysis `mc1'.
    34 warnings suppressed.

finalTimeOP: writing operating point information to rawfile.

Opening the PSF file ../psf/mc1_separate/003/finalTimeOP.info ...
modelParameter: writing model parameter values to rawfile.

Opening the PSF file ../psf/mc1_separate/003/modelParameter.info ...
element: writing instance parameter values to rawfile.

Opening the PSF file ../psf/mc1_separate/003/element.info ...
outputParameter: writing output parameter values to rawfile.

Opening the PSF file ../psf/mc1_separate/003/outputParameter.info ...
designParamVals: writing netlist parameters to rawfile.

Opening the PSFASCII file ../psf/mc1_separate/003/designParamVals.info ...
primitives: writing primitives to rawfile.

Opening the PSFASCII file ../psf/mc1_separate/003/primitives.info.primitives ...
subckts: writing subcircuits to rawfile.

Opening the PSFASCII file ../psf/mc1_separate/003/subckts.info.subckts ...
    mc1: iteration = 3           (4.08 %), step = 1            (2.04 %)
4   6.12% 

*****************************************************************************************
* 
* INFO: AMS_processOption = C35B4C3
* 
* INFO: Valid Modules  PIP VG5 HIRES
* 
*****************************************************************************************


******************
DC Analysis `dcOp'
******************

Opening the PSF file ../psf/mc1_separate/004/dcOp.dc ...
Important parameter values:
    reltol = 100e-06
    abstol(V) = 1 uV
    abstol(I) = 1 pA
    temp = 85 C
    tnom = 27 C
    tempeffects = all
    gmindc = 1 pS
    rabsshort = 1 mOhm

Notice from spectre during DC analysis `dcOp', during Monte Carlo analysis `mc1'.
    Bad pivoting is found during DC analysis. Option dc_pivot_check=yes is recommended for possible improvement of convergence.


Maximum value achieved for any signal of each quantity: 
V: V(S<0>) = 3.3 V
I: I(V0:p) = 6.498 uA
Maximum value of each quantity, excluding Verilog-A modules or dangling current sources:
V: V(net1) = 1.6 V
I: I(V0:p) = 6.498 uA

Warning from spectre during check, during DC analysis `dcOp', during Monte Carlo analysis `mc1'.
    WARNING (CMI-2943): Parameter checks have been ignored because the valid value for parameter 'trise' could not be found in 'C1'.
    WARNING (CMI-2943): Parameter checks have been ignored because the valid value for parameter 'trise' could not be found in 'I0.R2.CM'.
    WARNING (CMI-2943): Parameter checks have been ignored because the valid value for parameter 'trise' could not be found in 'I0.R2.CS1'.
    WARNING (CMI-2943): Parameter checks have been ignored because the valid value for parameter 'trise' could not be found in 'I0.R2.CS0'.
    WARNING (CMI-2943): Parameter checks have been ignored because the valid value for parameter 'trise' could not be found in 'I0.C8<3>.C1'.
        Further occurrences of this warning will be suppressed.

Convergence achieved in 16 iterations.
DC simulation time: CPU = 4.508 ms, elapsed = 5.79405 ms.
Total time required for dc analysis `dcOp': CPU = 4.875 ms, elapsed = 6.16097 ms, util. = 79.1%.
Time accumulated: CPU = 2.60717 s, elapsed = 3.17778 s.
Peak resident memory used = 214 Mbytes.


Notice from spectre during Monte Carlo analysis `mc1'.
    34 warnings suppressed.

dcOpInfo: writing operating point information to rawfile.

Opening the PSF file ../psf/mc1_separate/004/dcOpInfo.info ...

************************************************
Transient Analysis `tran': time = (0 s -> 40 ms)
************************************************

Opening the PSF file ../psf/mc1_separate/004/tran.tran.tran ...

Notice from spectre during IC analysis, during transient analysis `tran', during Monte Carlo analysis `mc1'.
    Bad pivoting is found during DC analysis. Option dc_pivot_check=yes is recommended for possible improvement of convergence.
Warning from spectre during check, during IC analysis, during transient analysis `tran', during Monte Carlo analysis `mc1'.
    WARNING (CMI-2943): Parameter checks have been ignored because the valid value for parameter 'trise' could not be found in 'C1'.
    WARNING (CMI-2943): Parameter checks have been ignored because the valid value for parameter 'trise' could not be found in 'I0.R2.CM'.
    WARNING (CMI-2943): Parameter checks have been ignored because the valid value for parameter 'trise' could not be found in 'I0.R2.CS1'.
    WARNING (CMI-2943): Parameter checks have been ignored because the valid value for parameter 'trise' could not be found in 'I0.R2.CS0'.
    WARNING (CMI-2943): Parameter checks have been ignored because the valid value for parameter 'trise' could not be found in 'I0.C8<3>.C1'.
        Further occurrences of this warning will be suppressed.

Convergence achieved in 16 iterations.
DC simulation time: CPU = 2.218 ms, elapsed = 2.23088 ms.
Important parameter values:
    start = 0 s
    outputstart = 0 s
    stop = 40 ms
    step = 40 us
    maxstep = 400 us
    ic = all
    useprevic = no
    skipdc = no
    reltol = 10e-06
    abstol(V) = 1 uV
    abstol(I) = 1 pA
    temp = 85 C
    tnom = 27 C
    tempeffects = all
    errpreset = conservative
    method = gear2only
    lteratio = 10
    relref = alllocal
    cmin = 0 F
    gmin = 1 pS
    rabsshort = 1 mOhm


Notice from spectre during transient analysis `tran', during Monte Carlo analysis `mc1'.
    Multithreading is disabled due to the size of the design being too small.


Output and IC/nodeset summary:
                 save   8       (current)
                 save   87      (voltage)

    tran: time = 1.017 ms    (2.54 %), step = 48.64 us     (122 m%)
    tran: time = 3.031 ms    (7.58 %), step = 47.59 us     (119 m%)
    tran: time = 5.044 ms    (12.6 %), step = 46.77 us     (117 m%)
    tran: time = 7.01 ms     (17.5 %), step = 49.32 us     (123 m%)
    tran: time = 9.023 ms    (22.6 %), step = 48.17 us     (120 m%)
    tran: time = 11.04 ms    (27.6 %), step = 47.21 us     (118 m%)
    tran: time = 13 ms       (32.5 %), step = 50 us        (125 m%)
    tran: time = 15.02 ms    (37.5 %), step = 48.8 us      (122 m%)
    tran: time = 17.03 ms    (42.6 %), step = 47.72 us     (119 m%)
    tran: time = 19.04 ms    (47.6 %), step = 46.87 us     (117 m%)
    tran: time = 21.01 ms    (52.5 %), step = 49.5 us      (124 m%)
    tran: time = 23.02 ms    (57.6 %), step = 48.32 us     (121 m%)
    tran: time = 25.03 ms    (62.6 %), step = 47.33 us     (118 m%)
    tran: time = 27 ms       (67.5 %), step = 50 us        (125 m%)
    tran: time = 29.01 ms    (72.5 %), step = 48.97 us     (122 m%)
    tran: time = 31.03 ms    (77.6 %), step = 47.86 us     (120 m%)
    tran: time = 33.04 ms    (82.6 %), step = 46.98 us     (117 m%)
    tran: time = 35.01 ms    (87.5 %), step = 49.69 us     (124 m%)
    tran: time = 37.02 ms    (92.5 %), step = 48.48 us     (121 m%)
    tran: time = 39.03 ms    (97.6 %), step = 47.46 us     (119 m%)
Number of accepted tran steps =             852

Maximum value achieved for any signal of each quantity: 
V: V(S<0>) = 3.3 V
I: I(V0:p) = 6.498 uA
Maximum value of each quantity, excluding Verilog-A modules or dangling current sources:
V: V(vout_filt) = 1.612 V
I: I(V0:p) = 6.498 uA

~~~~~~~~~~~~~~~~~~~~~~~~~~~~~~~~~
Post-Transient Simulation Summary
~~~~~~~~~~~~~~~~~~~~~~~~~~~~~~~~~
   -   To further speed up simulation, consider
          add ++aps on command line
   -   Non-default settings that could significantly slow down simulation
          errpreset = conservative, default moderate
          reltol = 10e-06, default 100e-06 (conservative)
~~~~~~~~~~~~~~~~~~~~~~~~~~~~~~~~~


During simulation, the CPU load for active processors is :
         0 (5.1 %)       1 (3.4 %)       2 (13.2 %)      3 (17.6 %)
         4 (38.5 %)      5 (100.0 %)     6 (8.5 %)       7 (52.9 %)
         8 (13.6 %)      9 (1.4 %)      10 (2.8 %)      11 (100.0 %)
        12 (46.6 %)     13 (31.2 %)     14 (18.9 %)     15 (41.6 %)
        16 (21.0 %)     17 (65.5 %)     18 (52.2 %)     19 (19.7 %)
        20 (2.5 %)      21 (54.6 %)     22 (4.2 %)      23 (19.3 %)
        24 (3.1 %)      25 (37.2 %)     26 (4.0 %)      27 (29.5 %)
        28 (53.2 %)     29 (28.3 %)     30 (58.3 %)     31 (100.0 %)
        32 (4.5 %)      33 (2.8 %)      34 (21.5 %)     35 (2.8 %)
        36 (38.8 %)     37 (20.7 %)     38 (6.9 %)      39 (100.0 %)
        40 (2.3 %)      41 (6.9 %)      42 (96.4 %)     43 (5.1 %)
        44 (2.3 %)      45 (2.3 %)      46 (6.8 %)      47 (2.8 %)
        Total: 1371.2%
Initial condition solution time: CPU = 2.247 ms, elapsed = 2.26188 ms.
Intrinsic tran analysis time:    CPU = 456.363 ms, elapsed = 457.904 ms.
Total time required for tran analysis `tran': CPU = 460.283 ms, elapsed = 462.381 ms, util. = 99.5%.
Time accumulated: CPU = 3.07351 s, elapsed = 3.64899 s.
Peak resident memory used = 214 Mbytes.


Notice from spectre during transient analysis `tran', during Monte Carlo analysis `mc1'.
    34 warnings suppressed.

finalTimeOP: writing operating point information to rawfile.

Opening the PSF file ../psf/mc1_separate/004/finalTimeOP.info ...
modelParameter: writing model parameter values to rawfile.

Opening the PSF file ../psf/mc1_separate/004/modelParameter.info ...
element: writing instance parameter values to rawfile.

Opening the PSF file ../psf/mc1_separate/004/element.info ...
outputParameter: writing output parameter values to rawfile.

Opening the PSF file ../psf/mc1_separate/004/outputParameter.info ...
designParamVals: writing netlist parameters to rawfile.

Opening the PSFASCII file ../psf/mc1_separate/004/designParamVals.info ...
primitives: writing primitives to rawfile.

Opening the PSFASCII file ../psf/mc1_separate/004/primitives.info.primitives ...
subckts: writing subcircuits to rawfile.

Opening the PSFASCII file ../psf/mc1_separate/004/subckts.info.subckts ...
    mc1: iteration = 4           (6.12 %), step = 1            (2.04 %)
5   8.16% 

*****************************************************************************************
* 
* INFO: AMS_processOption = C35B4C3
* 
* INFO: Valid Modules  PIP VG5 HIRES
* 
*****************************************************************************************


******************
DC Analysis `dcOp'
******************

Opening the PSF file ../psf/mc1_separate/005/dcOp.dc ...
Important parameter values:
    reltol = 100e-06
    abstol(V) = 1 uV
    abstol(I) = 1 pA
    temp = 85 C
    tnom = 27 C
    tempeffects = all
    gmindc = 1 pS
    rabsshort = 1 mOhm

Notice from spectre during DC analysis `dcOp', during Monte Carlo analysis `mc1'.
    Bad pivoting is found during DC analysis. Option dc_pivot_check=yes is recommended for possible improvement of convergence.


Maximum value achieved for any signal of each quantity: 
V: V(S<0>) = 3.3 V
I: I(V0:p) = 6.428 uA
Maximum value of each quantity, excluding Verilog-A modules or dangling current sources:
V: V(vout_filt) = 1.6 V
I: I(V0:p) = 6.428 uA

Warning from spectre during check, during DC analysis `dcOp', during Monte Carlo analysis `mc1'.
    WARNING (CMI-2943): Parameter checks have been ignored because the valid value for parameter 'trise' could not be found in 'C1'.
    WARNING (CMI-2943): Parameter checks have been ignored because the valid value for parameter 'trise' could not be found in 'I0.R2.CM'.
    WARNING (CMI-2943): Parameter checks have been ignored because the valid value for parameter 'trise' could not be found in 'I0.R2.CS1'.
    WARNING (CMI-2943): Parameter checks have been ignored because the valid value for parameter 'trise' could not be found in 'I0.R2.CS0'.
    WARNING (CMI-2943): Parameter checks have been ignored because the valid value for parameter 'trise' could not be found in 'I0.C8<3>.C1'.
        Further occurrences of this warning will be suppressed.

Convergence achieved in 17 iterations.
DC simulation time: CPU = 5.387 ms, elapsed = 7.29585 ms.
Total time required for dc analysis `dcOp': CPU = 5.905 ms, elapsed = 7.81298 ms, util. = 75.6%.
Time accumulated: CPU = 3.11704 s, elapsed = 3.70599 s.
Peak resident memory used = 214 Mbytes.


Notice from spectre during Monte Carlo analysis `mc1'.
    34 warnings suppressed.

dcOpInfo: writing operating point information to rawfile.

Opening the PSF file ../psf/mc1_separate/005/dcOpInfo.info ...

************************************************
Transient Analysis `tran': time = (0 s -> 40 ms)
************************************************

Opening the PSF file ../psf/mc1_separate/005/tran.tran.tran ...

Notice from spectre during IC analysis, during transient analysis `tran', during Monte Carlo analysis `mc1'.
    Bad pivoting is found during DC analysis. Option dc_pivot_check=yes is recommended for possible improvement of convergence.
Warning from spectre during check, during IC analysis, during transient analysis `tran', during Monte Carlo analysis `mc1'.
    WARNING (CMI-2943): Parameter checks have been ignored because the valid value for parameter 'trise' could not be found in 'C1'.
    WARNING (CMI-2943): Parameter checks have been ignored because the valid value for parameter 'trise' could not be found in 'I0.R2.CM'.
    WARNING (CMI-2943): Parameter checks have been ignored because the valid value for parameter 'trise' could not be found in 'I0.R2.CS1'.
    WARNING (CMI-2943): Parameter checks have been ignored because the valid value for parameter 'trise' could not be found in 'I0.R2.CS0'.
    WARNING (CMI-2943): Parameter checks have been ignored because the valid value for parameter 'trise' could not be found in 'I0.C8<3>.C1'.
        Further occurrences of this warning will be suppressed.

Convergence achieved in 17 iterations.
DC simulation time: CPU = 2.41 ms, elapsed = 2.41113 ms.
Important parameter values:
    start = 0 s
    outputstart = 0 s
    stop = 40 ms
    step = 40 us
    maxstep = 400 us
    ic = all
    useprevic = no
    skipdc = no
    reltol = 10e-06
    abstol(V) = 1 uV
    abstol(I) = 1 pA
    temp = 85 C
    tnom = 27 C
    tempeffects = all
    errpreset = conservative
    method = gear2only
    lteratio = 10
    relref = alllocal
    cmin = 0 F
    gmin = 1 pS
    rabsshort = 1 mOhm


Notice from spectre during transient analysis `tran', during Monte Carlo analysis `mc1'.
    Multithreading is disabled due to the size of the design being too small.


Output and IC/nodeset summary:
                 save   8       (current)
                 save   87      (voltage)

    tran: time = 1.02 ms     (2.55 %), step = 48.48 us     (121 m%)
    tran: time = 3.033 ms    (7.58 %), step = 47.43 us     (119 m%)
    tran: time = 5 ms        (12.5 %), step = 50 us        (125 m%)
    tran: time = 7.013 ms    (17.5 %), step = 49.03 us     (123 m%)
    tran: time = 9.027 ms    (22.6 %), step = 47.89 us     (120 m%)
    tran: time = 11.04 ms    (27.6 %), step = 46.98 us     (117 m%)
    tran: time = 13.01 ms    (32.5 %), step = 49.64 us     (124 m%)
    tran: time = 15.02 ms    (37.6 %), step = 48.4 us      (121 m%)
    tran: time = 17.03 ms    (42.6 %), step = 47.37 us     (118 m%)
    tran: time = 19 ms       (47.5 %), step = 50 us        (125 m%)
    tran: time = 21.01 ms    (52.5 %), step = 48.95 us     (122 m%)
    tran: time = 23.03 ms    (57.6 %), step = 47.81 us     (120 m%)
    tran: time = 25.04 ms    (62.6 %), step = 46.92 us     (117 m%)
    tran: time = 27.01 ms    (67.5 %), step = 49.54 us     (124 m%)
    tran: time = 29.02 ms    (72.6 %), step = 48.31 us     (121 m%)
    tran: time = 31.04 ms    (77.6 %), step = 47.3 us      (118 m%)
    tran: time = 33 ms       (82.5 %), step = 50 us        (125 m%)
    tran: time = 35.02 ms    (87.5 %), step = 48.85 us     (122 m%)
    tran: time = 37.03 ms    (92.6 %), step = 47.73 us     (119 m%)
    tran: time = 39.04 ms    (97.6 %), step = 46.86 us     (117 m%)
Number of accepted tran steps =             851

Maximum value achieved for any signal of each quantity: 
V: V(S<0>) = 3.3 V
I: I(V0:p) = 6.429 uA
Maximum value of each quantity, excluding Verilog-A modules or dangling current sources:
V: V(vout_filt) = 1.614 V
I: I(V0:p) = 6.429 uA

~~~~~~~~~~~~~~~~~~~~~~~~~~~~~~~~~
Post-Transient Simulation Summary
~~~~~~~~~~~~~~~~~~~~~~~~~~~~~~~~~
   -   To further speed up simulation, consider
          add ++aps on command line
   -   Non-default settings that could significantly slow down simulation
          errpreset = conservative, default moderate
          reltol = 10e-06, default 100e-06 (conservative)
~~~~~~~~~~~~~~~~~~~~~~~~~~~~~~~~~


During simulation, the CPU load for active processors is :
         0 (4.8 %)       1 (3.7 %)       2 (11.8 %)      3 (16.0 %)
         4 (36.5 %)      5 (100.0 %)     6 (7.9 %)       7 (56.0 %)
         8 (16.5 %)      9 (1.2 %)      10 (3.0 %)      11 (100.0 %)
        12 (42.4 %)     13 (27.7 %)     14 (16.8 %)     15 (48.8 %)
        16 (30.6 %)     17 (63.3 %)     18 (51.3 %)     19 (18.6 %)
        20 (2.5 %)      21 (60.5 %)     22 (4.2 %)      23 (17.1 %)
        24 (3.0 %)      25 (35.1 %)     26 (3.7 %)      27 (25.9 %)
        28 (49.0 %)     29 (25.9 %)     30 (63.3 %)     31 (100.0 %)
        32 (4.2 %)      33 (3.7 %)      34 (28.1 %)     35 (2.7 %)
        36 (37.8 %)     37 (18.3 %)     38 (17.0 %)     39 (100.0 %)
        40 (2.5 %)      41 (7.0 %)      42 (91.7 %)     43 (4.7 %)
        44 (2.7 %)      45 (3.2 %)      46 (6.2 %)      47 (3.0 %)
        Total: 1379.9%
Initial condition solution time: CPU = 2.457 ms, elapsed = 2.45881 ms.
Intrinsic tran analysis time:    CPU = 454.289 ms, elapsed = 455.758 ms.
Total time required for tran analysis `tran': CPU = 458.714 ms, elapsed = 460.844 ms, util. = 99.5%.
Time accumulated: CPU = 3.58214 s, elapsed = 4.17579 s.
Peak resident memory used = 214 Mbytes.


Notice from spectre during transient analysis `tran', during Monte Carlo analysis `mc1'.
    34 warnings suppressed.

finalTimeOP: writing operating point information to rawfile.

Opening the PSF file ../psf/mc1_separate/005/finalTimeOP.info ...
modelParameter: writing model parameter values to rawfile.

Opening the PSF file ../psf/mc1_separate/005/modelParameter.info ...
element: writing instance parameter values to rawfile.

Opening the PSF file ../psf/mc1_separate/005/element.info ...
outputParameter: writing output parameter values to rawfile.

Opening the PSF file ../psf/mc1_separate/005/outputParameter.info ...
designParamVals: writing netlist parameters to rawfile.

Opening the PSFASCII file ../psf/mc1_separate/005/designParamVals.info ...
primitives: writing primitives to rawfile.

Opening the PSFASCII file ../psf/mc1_separate/005/primitives.info.primitives ...
subckts: writing subcircuits to rawfile.

Opening the PSFASCII file ../psf/mc1_separate/005/subckts.info.subckts ...
    mc1: iteration = 5           (8.16 %), step = 1            (2.04 %)
6  10.20% 

*****************************************************************************************
* 
* INFO: AMS_processOption = C35B4C3
* 
* INFO: Valid Modules  PIP VG5 HIRES
* 
*****************************************************************************************


******************
DC Analysis `dcOp'
******************

Opening the PSF file ../psf/mc1_separate/006/dcOp.dc ...
Important parameter values:
    reltol = 100e-06
    abstol(V) = 1 uV
    abstol(I) = 1 pA
    temp = 85 C
    tnom = 27 C
    tempeffects = all
    gmindc = 1 pS
    rabsshort = 1 mOhm

Notice from spectre during DC analysis `dcOp', during Monte Carlo analysis `mc1'.
    Bad pivoting is found during DC analysis. Option dc_pivot_check=yes is recommended for possible improvement of convergence.


Maximum value achieved for any signal of each quantity: 
V: V(S<0>) = 3.3 V
I: I(V0:p) = 6.447 uA
Maximum value of each quantity, excluding Verilog-A modules or dangling current sources:
V: V(net1) = 1.6 V
I: I(V0:p) = 6.447 uA

Warning from spectre during check, during DC analysis `dcOp', during Monte Carlo analysis `mc1'.
    WARNING (CMI-2943): Parameter checks have been ignored because the valid value for parameter 'trise' could not be found in 'C1'.
    WARNING (CMI-2943): Parameter checks have been ignored because the valid value for parameter 'trise' could not be found in 'I0.R2.CM'.
    WARNING (CMI-2943): Parameter checks have been ignored because the valid value for parameter 'trise' could not be found in 'I0.R2.CS1'.
    WARNING (CMI-2943): Parameter checks have been ignored because the valid value for parameter 'trise' could not be found in 'I0.R2.CS0'.
    WARNING (CMI-2943): Parameter checks have been ignored because the valid value for parameter 'trise' could not be found in 'I0.C8<3>.C1'.
        Further occurrences of this warning will be suppressed.

Convergence achieved in 17 iterations.
DC simulation time: CPU = 4.404 ms, elapsed = 5.65195 ms.
Total time required for dc analysis `dcOp': CPU = 4.745 ms, elapsed = 5.99194 ms, util. = 79.2%.
Time accumulated: CPU = 3.62099 s, elapsed = 4.22635 s.
Peak resident memory used = 214 Mbytes.


Notice from spectre during Monte Carlo analysis `mc1'.
    34 warnings suppressed.

dcOpInfo: writing operating point information to rawfile.

Opening the PSF file ../psf/mc1_separate/006/dcOpInfo.info ...

************************************************
Transient Analysis `tran': time = (0 s -> 40 ms)
************************************************

Opening the PSF file ../psf/mc1_separate/006/tran.tran.tran ...

Notice from spectre during IC analysis, during transient analysis `tran', during Monte Carlo analysis `mc1'.
    Bad pivoting is found during DC analysis. Option dc_pivot_check=yes is recommended for possible improvement of convergence.
Warning from spectre during check, during IC analysis, during transient analysis `tran', during Monte Carlo analysis `mc1'.
    WARNING (CMI-2943): Parameter checks have been ignored because the valid value for parameter 'trise' could not be found in 'C1'.
    WARNING (CMI-2943): Parameter checks have been ignored because the valid value for parameter 'trise' could not be found in 'I0.R2.CM'.
    WARNING (CMI-2943): Parameter checks have been ignored because the valid value for parameter 'trise' could not be found in 'I0.R2.CS1'.
    WARNING (CMI-2943): Parameter checks have been ignored because the valid value for parameter 'trise' could not be found in 'I0.R2.CS0'.
    WARNING (CMI-2943): Parameter checks have been ignored because the valid value for parameter 'trise' could not be found in 'I0.C8<3>.C1'.
        Further occurrences of this warning will be suppressed.

Convergence achieved in 17 iterations.
DC simulation time: CPU = 2.393 ms, elapsed = 2.39301 ms.
Important parameter values:
    start = 0 s
    outputstart = 0 s
    stop = 40 ms
    step = 40 us
    maxstep = 400 us
    ic = all
    useprevic = no
    skipdc = no
    reltol = 10e-06
    abstol(V) = 1 uV
    abstol(I) = 1 pA
    temp = 85 C
    tnom = 27 C
    tempeffects = all
    errpreset = conservative
    method = gear2only
    lteratio = 10
    relref = alllocal
    cmin = 0 F
    gmin = 1 pS
    rabsshort = 1 mOhm


Notice from spectre during transient analysis `tran', during Monte Carlo analysis `mc1'.
    Multithreading is disabled due to the size of the design being too small.


Output and IC/nodeset summary:
                 save   8       (current)
                 save   87      (voltage)

    tran: time = 1.02 ms     (2.55 %), step = 48.43 us     (121 m%)
    tran: time = 3.033 ms    (7.58 %), step = 47.42 us     (119 m%)
    tran: time = 5.046 ms    (12.6 %), step = 46.62 us     (117 m%)
    tran: time = 7.013 ms    (17.5 %), step = 49.06 us     (123 m%)
    tran: time = 9.026 ms    (22.6 %), step = 47.93 us     (120 m%)
    tran: time = 11.04 ms    (27.6 %), step = 47.03 us     (118 m%)
    tran: time = 13.01 ms    (32.5 %), step = 49.76 us     (124 m%)
    tran: time = 15.02 ms    (37.5 %), step = 48.52 us     (121 m%)
    tran: time = 17.03 ms    (42.6 %), step = 47.49 us     (119 m%)
    tran: time = 19.05 ms    (47.6 %), step = 46.68 us     (117 m%)
    tran: time = 21.01 ms    (52.5 %), step = 49.16 us     (123 m%)
    tran: time = 23.02 ms    (57.6 %), step = 48.02 us     (120 m%)
    tran: time = 25.04 ms    (62.6 %), step = 47.1 us      (118 m%)
    tran: time = 27 ms       (67.5 %), step = 49.88 us     (125 m%)
    tran: time = 29.02 ms    (72.5 %), step = 48.62 us     (122 m%)
    tran: time = 31.03 ms    (77.6 %), step = 47.56 us     (119 m%)
    tran: time = 33.04 ms    (82.6 %), step = 46.74 us     (117 m%)
    tran: time = 35.01 ms    (87.5 %), step = 49.26 us     (123 m%)
    tran: time = 37.02 ms    (92.6 %), step = 48.1 us      (120 m%)
    tran: time = 39.04 ms    (97.6 %), step = 47.16 us     (118 m%)
Number of accepted tran steps =             852

Maximum value achieved for any signal of each quantity: 
V: V(S<0>) = 3.3 V
I: I(V0:p) = 6.447 uA
Maximum value of each quantity, excluding Verilog-A modules or dangling current sources:
V: V(vout_filt) = 1.612 V
I: I(V0:p) = 6.447 uA

~~~~~~~~~~~~~~~~~~~~~~~~~~~~~~~~~
Post-Transient Simulation Summary
~~~~~~~~~~~~~~~~~~~~~~~~~~~~~~~~~
   -   To further speed up simulation, consider
          add ++aps on command line
   -   Non-default settings that could significantly slow down simulation
          errpreset = conservative, default moderate
          reltol = 10e-06, default 100e-06 (conservative)
~~~~~~~~~~~~~~~~~~~~~~~~~~~~~~~~~


During simulation, the CPU load for active processors is :
         0 (4.5 %)       1 (6.1 %)       2 (11.2 %)      3 (14.7 %)
         4 (34.8 %)      5 (100.0 %)     6 (7.7 %)       7 (50.0 %)
         8 (25.9 %)      9 (1.5 %)      10 (3.1 %)      11 (100.0 %)
        12 (38.6 %)     13 (24.6 %)     14 (15.1 %)     15 (54.0 %)
        16 (37.6 %)     17 (61.2 %)     18 (46.0 %)     19 (22.8 %)
        20 (2.4 %)      21 (64.9 %)     22 (4.4 %)      23 (15.4 %)
        24 (3.1 %)      25 (31.2 %)     26 (3.7 %)      27 (24.0 %)
        28 (44.5 %)     29 (23.4 %)     30 (67.1 %)     31 (100.0 %)
        32 (4.6 %)      33 (3.7 %)      34 (36.3 %)     35 (2.9 %)
        36 (44.9 %)     37 (18.0 %)     38 (21.0 %)     39 (100.0 %)
        40 (3.7 %)      41 (6.2 %)      42 (82.2 %)     43 (4.4 %)
        44 (2.6 %)      45 (3.3 %)      46 (5.9 %)      47 (2.9 %)
        Total: 1386.3%
Initial condition solution time: CPU = 2.421 ms, elapsed = 2.42305 ms.
Intrinsic tran analysis time:    CPU = 454.213 ms, elapsed = 455.624 ms.
Total time required for tran analysis `tran': CPU = 458.212 ms, elapsed = 460.13 ms, util. = 99.6%.
Time accumulated: CPU = 4.08527 s, elapsed = 4.69468 s.
Peak resident memory used = 214 Mbytes.


Notice from spectre during transient analysis `tran', during Monte Carlo analysis `mc1'.
    34 warnings suppressed.

finalTimeOP: writing operating point information to rawfile.

Opening the PSF file ../psf/mc1_separate/006/finalTimeOP.info ...
modelParameter: writing model parameter values to rawfile.

Opening the PSF file ../psf/mc1_separate/006/modelParameter.info ...
element: writing instance parameter values to rawfile.

Opening the PSF file ../psf/mc1_separate/006/element.info ...
outputParameter: writing output parameter values to rawfile.

Opening the PSF file ../psf/mc1_separate/006/outputParameter.info ...
designParamVals: writing netlist parameters to rawfile.

Opening the PSFASCII file ../psf/mc1_separate/006/designParamVals.info ...
primitives: writing primitives to rawfile.

Opening the PSFASCII file ../psf/mc1_separate/006/primitives.info.primitives ...
subckts: writing subcircuits to rawfile.

Opening the PSFASCII file ../psf/mc1_separate/006/subckts.info.subckts ...
    mc1: iteration = 6           (10.2 %), step = 1            (2.04 %)
7  12.24% 

*****************************************************************************************
* 
* INFO: AMS_processOption = C35B4C3
* 
* INFO: Valid Modules  PIP VG5 HIRES
* 
*****************************************************************************************


******************
DC Analysis `dcOp'
******************

Opening the PSF file ../psf/mc1_separate/007/dcOp.dc ...
Important parameter values:
    reltol = 100e-06
    abstol(V) = 1 uV
    abstol(I) = 1 pA
    temp = 85 C
    tnom = 27 C
    tempeffects = all
    gmindc = 1 pS
    rabsshort = 1 mOhm

Notice from spectre during DC analysis `dcOp', during Monte Carlo analysis `mc1'.
    Bad pivoting is found during DC analysis. Option dc_pivot_check=yes is recommended for possible improvement of convergence.


Maximum value achieved for any signal of each quantity: 
V: V(S<0>) = 3.3 V
I: I(V0:p) = 6.598 uA
Maximum value of each quantity, excluding Verilog-A modules or dangling current sources:
V: V(vout_filt) = 1.601 V
I: I(V0:p) = 6.598 uA

Warning from spectre during check, during DC analysis `dcOp', during Monte Carlo analysis `mc1'.
    WARNING (CMI-2943): Parameter checks have been ignored because the valid value for parameter 'trise' could not be found in 'C1'.
    WARNING (CMI-2943): Parameter checks have been ignored because the valid value for parameter 'trise' could not be found in 'I0.R2.CM'.
    WARNING (CMI-2943): Parameter checks have been ignored because the valid value for parameter 'trise' could not be found in 'I0.R2.CS1'.
    WARNING (CMI-2943): Parameter checks have been ignored because the valid value for parameter 'trise' could not be found in 'I0.R2.CS0'.
    WARNING (CMI-2943): Parameter checks have been ignored because the valid value for parameter 'trise' could not be found in 'I0.C8<3>.C1'.
        Further occurrences of this warning will be suppressed.

Convergence achieved in 17 iterations.
DC simulation time: CPU = 5.03 ms, elapsed = 6.25396 ms.
Total time required for dc analysis `dcOp': CPU = 5.468 ms, elapsed = 6.69312 ms, util. = 81.7%.
Time accumulated: CPU = 4.12709 s, elapsed = 4.74816 s.
Peak resident memory used = 214 Mbytes.


Notice from spectre during Monte Carlo analysis `mc1'.
    34 warnings suppressed.

dcOpInfo: writing operating point information to rawfile.

Opening the PSF file ../psf/mc1_separate/007/dcOpInfo.info ...

************************************************
Transient Analysis `tran': time = (0 s -> 40 ms)
************************************************

Opening the PSF file ../psf/mc1_separate/007/tran.tran.tran ...

Notice from spectre during IC analysis, during transient analysis `tran', during Monte Carlo analysis `mc1'.
    Bad pivoting is found during DC analysis. Option dc_pivot_check=yes is recommended for possible improvement of convergence.
Warning from spectre during check, during IC analysis, during transient analysis `tran', during Monte Carlo analysis `mc1'.
    WARNING (CMI-2943): Parameter checks have been ignored because the valid value for parameter 'trise' could not be found in 'C1'.
    WARNING (CMI-2943): Parameter checks have been ignored because the valid value for parameter 'trise' could not be found in 'I0.R2.CM'.
    WARNING (CMI-2943): Parameter checks have been ignored because the valid value for parameter 'trise' could not be found in 'I0.R2.CS1'.
    WARNING (CMI-2943): Parameter checks have been ignored because the valid value for parameter 'trise' could not be found in 'I0.R2.CS0'.
    WARNING (CMI-2943): Parameter checks have been ignored because the valid value for parameter 'trise' could not be found in 'I0.C8<3>.C1'.
        Further occurrences of this warning will be suppressed.

Convergence achieved in 17 iterations.
DC simulation time: CPU = 2.338 ms, elapsed = 2.33793 ms.
Important parameter values:
    start = 0 s
    outputstart = 0 s
    stop = 40 ms
    step = 40 us
    maxstep = 400 us
    ic = all
    useprevic = no
    skipdc = no
    reltol = 10e-06
    abstol(V) = 1 uV
    abstol(I) = 1 pA
    temp = 85 C
    tnom = 27 C
    tempeffects = all
    errpreset = conservative
    method = gear2only
    lteratio = 10
    relref = alllocal
    cmin = 0 F
    gmin = 1 pS
    rabsshort = 1 mOhm


Notice from spectre during transient analysis `tran', during Monte Carlo analysis `mc1'.
    Multithreading is disabled due to the size of the design being too small.


Output and IC/nodeset summary:
                 save   8       (current)
                 save   87      (voltage)

    tran: time = 1.021 ms    (2.55 %), step = 48.39 us     (121 m%)
    tran: time = 3.034 ms    (7.59 %), step = 47.36 us     (118 m%)
    tran: time = 5.001 ms    (12.5 %), step = 50 us        (125 m%)
    tran: time = 7.015 ms    (17.5 %), step = 48.91 us     (122 m%)
    tran: time = 9.028 ms    (22.6 %), step = 47.77 us     (119 m%)
    tran: time = 11.04 ms    (27.6 %), step = 46.89 us     (117 m%)
    tran: time = 13.01 ms    (32.5 %), step = 49.47 us     (124 m%)
    tran: time = 15.02 ms    (37.6 %), step = 48.25 us     (121 m%)
    tran: time = 17.04 ms    (42.6 %), step = 47.25 us     (118 m%)
    tran: time = 19 ms       (47.5 %), step = 50 us        (125 m%)
    tran: time = 21.02 ms    (52.5 %), step = 48.76 us     (122 m%)
    tran: time = 23.03 ms    (57.6 %), step = 47.65 us     (119 m%)
    tran: time = 25.04 ms    (62.6 %), step = 46.79 us     (117 m%)
    tran: time = 27.01 ms    (67.5 %), step = 49.3 us      (123 m%)
    tran: time = 29.02 ms    (72.6 %), step = 48.11 us     (120 m%)
    tran: time = 31.04 ms    (77.6 %), step = 47.14 us     (118 m%)
    tran: time = 33 ms       (82.5 %), step = 49.91 us     (125 m%)
    tran: time = 35.02 ms    (87.5 %), step = 48.61 us     (122 m%)
    tran: time = 37.03 ms    (92.6 %), step = 47.54 us     (119 m%)
    tran: time = 39.05 ms    (97.6 %), step = 46.7 us      (117 m%)
Number of accepted tran steps =             851

[...]
        Total: 1471.3%
Initial condition solution time: CPU = 2.202 ms, elapsed = 2.20203 ms.
Intrinsic tran analysis time:    CPU = 455.304 ms, elapsed = 456.534 ms.
Total time required for tran analysis `tran': CPU = 459.276 ms, elapsed = 461.118 ms, util. = 99.6%.
Time accumulated: CPU = 25.2023 s, elapsed = 26.5133 s.
Peak resident memory used = 215 Mbytes.


Notice from spectre during transient analysis `tran', during Monte Carlo analysis `mc1'.
    34 warnings suppressed.

finalTimeOP: writing operating point information to rawfile.

Opening the PSF file ../psf/mc1_separate/048/finalTimeOP.info ...
modelParameter: writing model parameter values to rawfile.

Opening the PSF file ../psf/mc1_separate/048/modelParameter.info ...
element: writing instance parameter values to rawfile.

Opening the PSF file ../psf/mc1_separate/048/element.info ...
outputParameter: writing output parameter values to rawfile.

Opening the PSF file ../psf/mc1_separate/048/outputParameter.info ...
designParamVals: writing netlist parameters to rawfile.

Opening the PSFASCII file ../psf/mc1_separate/048/designParamVals.info ...
primitives: writing primitives to rawfile.

Opening the PSFASCII file ../psf/mc1_separate/048/primitives.info.primitives ...
subckts: writing subcircuits to rawfile.

Opening the PSFASCII file ../psf/mc1_separate/048/subckts.info.subckts ...
    mc1: iteration = 48          (95.9 %), step = 1            (2.04 %)
49  97.96% 

*****************************************************************************************
* 
* INFO: AMS_processOption = C35B4C3
* 
* INFO: Valid Modules  PIP VG5 HIRES
* 
*****************************************************************************************


******************
DC Analysis `dcOp'
******************

Opening the PSF file ../psf/mc1_separate/049/dcOp.dc ...
Important parameter values:
    reltol = 100e-06
    abstol(V) = 1 uV
    abstol(I) = 1 pA
    temp = 85 C
    tnom = 27 C
    tempeffects = all
    gmindc = 1 pS
    rabsshort = 1 mOhm

Notice from spectre during DC analysis `dcOp', during Monte Carlo analysis `mc1'.
    Bad pivoting is found during DC analysis. Option dc_pivot_check=yes is recommended for possible improvement of convergence.


Maximum value achieved for any signal of each quantity: 
V: V(S<0>) = 3.3 V
I: I(V0:p) = 6.481 uA
Maximum value of each quantity, excluding Verilog-A modules or dangling current sources:
V: V(net1) = 1.6 V
I: I(V0:p) = 6.481 uA

Warning from spectre during check, during DC analysis `dcOp', during Monte Carlo analysis `mc1'.
    WARNING (CMI-2943): Parameter checks have been ignored because the valid value for parameter 'trise' could not be found in 'C1'.
    WARNING (CMI-2943): Parameter checks have been ignored because the valid value for parameter 'trise' could not be found in 'I0.R2.CM'.
    WARNING (CMI-2943): Parameter checks have been ignored because the valid value for parameter 'trise' could not be found in 'I0.R2.CS1'.
    WARNING (CMI-2943): Parameter checks have been ignored because the valid value for parameter 'trise' could not be found in 'I0.R2.CS0'.
    WARNING (CMI-2943): Parameter checks have been ignored because the valid value for parameter 'trise' could not be found in 'I0.C8<3>.C1'.
        Further occurrences of this warning will be suppressed.

Convergence achieved in 17 iterations.
DC simulation time: CPU = 4.767 ms, elapsed = 6.24919 ms.
Total time required for dc analysis `dcOp': CPU = 5.217 ms, elapsed = 6.69909 ms, util. = 77.9%.
Time accumulated: CPU = 25.2418 s, elapsed = 26.565 s.
Peak resident memory used = 215 Mbytes.


Notice from spectre during Monte Carlo analysis `mc1'.
    34 warnings suppressed.

dcOpInfo: writing operating point information to rawfile.

Opening the PSF file ../psf/mc1_separate/049/dcOpInfo.info ...

************************************************
Transient Analysis `tran': time = (0 s -> 40 ms)
************************************************

Opening the PSF file ../psf/mc1_separate/049/tran.tran.tran ...

Notice from spectre during IC analysis, during transient analysis `tran', during Monte Carlo analysis `mc1'.
    Bad pivoting is found during DC analysis. Option dc_pivot_check=yes is recommended for possible improvement of convergence.
Warning from spectre during check, during IC analysis, during transient analysis `tran', during Monte Carlo analysis `mc1'.
    WARNING (CMI-2943): Parameter checks have been ignored because the valid value for parameter 'trise' could not be found in 'C1'.
    WARNING (CMI-2943): Parameter checks have been ignored because the valid value for parameter 'trise' could not be found in 'I0.R2.CM'.
    WARNING (CMI-2943): Parameter checks have been ignored because the valid value for parameter 'trise' could not be found in 'I0.R2.CS1'.
    WARNING (CMI-2943): Parameter checks have been ignored because the valid value for parameter 'trise' could not be found in 'I0.R2.CS0'.
    WARNING (CMI-2943): Parameter checks have been ignored because the valid value for parameter 'trise' could not be found in 'I0.C8<3>.C1'.
        Further occurrences of this warning will be suppressed.

Convergence achieved in 17 iterations.
DC simulation time: CPU = 2.291 ms, elapsed = 2.29192 ms.
Important parameter values:
    start = 0 s
    outputstart = 0 s
    stop = 40 ms
    step = 40 us
    maxstep = 400 us
    ic = all
    useprevic = no
    skipdc = no
    reltol = 10e-06
    abstol(V) = 1 uV
    abstol(I) = 1 pA
    temp = 85 C
    tnom = 27 C
    tempeffects = all
    errpreset = conservative
    method = gear2only
    lteratio = 10
    relref = alllocal
    cmin = 0 F
    gmin = 1 pS
    rabsshort = 1 mOhm


Notice from spectre during transient analysis `tran', during Monte Carlo analysis `mc1'.
    Multithreading is disabled due to the size of the design being too small.


Output and IC/nodeset summary:
                 save   8       (current)
                 save   87      (voltage)

    tran: time = 1.02 ms     (2.55 %), step = 48.44 us     (121 m%)
    tran: time = 3.033 ms    (7.58 %), step = 47.41 us     (119 m%)
    tran: time = 5 ms        (12.5 %), step = 50 us        (125 m%)
    tran: time = 7.013 ms    (17.5 %), step = 49.01 us     (123 m%)
    tran: time = 9.027 ms    (22.6 %), step = 47.87 us     (120 m%)
    tran: time = 11.04 ms    (27.6 %), step = 46.97 us     (117 m%)
    tran: time = 13.01 ms    (32.5 %), step = 49.64 us     (124 m%)
    tran: time = 15.02 ms    (37.6 %), step = 48.4 us      (121 m%)
    tran: time = 17.03 ms    (42.6 %), step = 47.38 us     (118 m%)
    tran: time = 19 ms       (47.5 %), step = 50 us        (125 m%)
    tran: time = 21.01 ms    (52.5 %), step = 48.97 us     (122 m%)
    tran: time = 23.03 ms    (57.6 %), step = 47.84 us     (120 m%)
    tran: time = 25.04 ms    (62.6 %), step = 46.95 us     (117 m%)
    tran: time = 27.01 ms    (67.5 %), step = 49.59 us     (124 m%)
    tran: time = 29.02 ms    (72.6 %), step = 48.36 us     (121 m%)
    tran: time = 31.03 ms    (77.6 %), step = 47.35 us     (118 m%)
    tran: time = 33 ms       (82.5 %), step = 50 us        (125 m%)
    tran: time = 35.01 ms    (87.5 %), step = 48.93 us     (122 m%)
    tran: time = 37.03 ms    (92.6 %), step = 47.8 us      (120 m%)
    tran: time = 39.04 ms    (97.6 %), step = 46.92 us     (117 m%)
Number of accepted tran steps =             851

Maximum value achieved for any signal of each quantity: 
V: V(S<0>) = 3.3 V
I: I(V0:p) = 6.482 uA
Maximum value of each quantity, excluding Verilog-A modules or dangling current sources:
V: V(vout_filt) = 1.614 V
I: I(V0:p) = 6.482 uA

~~~~~~~~~~~~~~~~~~~~~~~~~~~~~~~~~
Post-Transient Simulation Summary
~~~~~~~~~~~~~~~~~~~~~~~~~~~~~~~~~
   -   To further speed up simulation, consider
          add ++aps on command line
   -   Non-default settings that could significantly slow down simulation
          errpreset = conservative, default moderate
          reltol = 10e-06, default 100e-06 (conservative)
~~~~~~~~~~~~~~~~~~~~~~~~~~~~~~~~~


During simulation, the CPU load for active processors is :
         0 (6.7 %)       1 (8.9 %)       2 (18.2 %)      3 (17.4 %)
         4 (41.3 %)      5 (55.7 %)      6 (19.6 %)      7 (19.3 %)
         8 (14.7 %)      9 (43.7 %)     10 (15.8 %)     11 (100.0 %)
        12 (15.2 %)     13 (23.0 %)     14 (18.6 %)     15 (39.3 %)
        16 (21.5 %)     17 (24.3 %)     18 (53.5 %)     19 (62.1 %)
        20 (38.4 %)     21 (26.5 %)     22 (46.4 %)     23 (29.8 %)
        24 (19.5 %)     25 (22.6 %)     26 (47.0 %)     27 (21.6 %)
        28 (43.5 %)     29 (33.4 %)     30 (27.8 %)     31 (100.0 %)
        32 (15.6 %)     33 (33.0 %)     34 (9.5 %)      35 (6.4 %)
        36 (30.7 %)     37 (25.8 %)     38 (57.5 %)     39 (100.0 %)
        40 (13.7 %)     41 (21.8 %)     42 (27.1 %)     43 (12.5 %)
        44 (15.9 %)     45 (11.2 %)     46 (9.5 %)      47 (5.2 %)
        Total: 1470.6%
Initial condition solution time: CPU = 2.33 ms, elapsed = 2.33221 ms.
Intrinsic tran analysis time:    CPU = 454.245 ms, elapsed = 455.749 ms.
Total time required for tran analysis `tran': CPU = 458.249 ms, elapsed = 460.443 ms, util. = 99.5%.
Time accumulated: CPU = 25.7063 s, elapsed = 27.0342 s.
Peak resident memory used = 215 Mbytes.


Notice from spectre during transient analysis `tran', during Monte Carlo analysis `mc1'.
    34 warnings suppressed.

finalTimeOP: writing operating point information to rawfile.

Opening the PSF file ../psf/mc1_separate/049/finalTimeOP.info ...
modelParameter: writing model parameter values to rawfile.

Opening the PSF file ../psf/mc1_separate/049/modelParameter.info ...
element: writing instance parameter values to rawfile.

Opening the PSF file ../psf/mc1_separate/049/element.info ...
outputParameter: writing output parameter values to rawfile.

Opening the PSF file ../psf/mc1_separate/049/outputParameter.info ...
designParamVals: writing netlist parameters to rawfile.

Opening the PSFASCII file ../psf/mc1_separate/049/designParamVals.info ...
primitives: writing primitives to rawfile.

Opening the PSFASCII file ../psf/mc1_separate/049/primitives.info.primitives ...
subckts: writing subcircuits to rawfile.

Opening the PSFASCII file ../psf/mc1_separate/049/subckts.info.subckts ...
    mc1: iteration = 49            (98 %), step = 1            (2.04 %)
50 100.00% 

*****************************************************************************************
* 
* INFO: AMS_processOption = C35B4C3
* 
* INFO: Valid Modules  PIP VG5 HIRES
* 
*****************************************************************************************


******************
DC Analysis `dcOp'
******************

Opening the PSF file ../psf/mc1_separate/050/dcOp.dc ...
Important parameter values:
    reltol = 100e-06
    abstol(V) = 1 uV
    abstol(I) = 1 pA
    temp = 85 C
    tnom = 27 C
    tempeffects = all
    gmindc = 1 pS
    rabsshort = 1 mOhm

Notice from spectre during DC analysis `dcOp', during Monte Carlo analysis `mc1'.
    Bad pivoting is found during DC analysis. Option dc_pivot_check=yes is recommended for possible improvement of convergence.


Maximum value achieved for any signal of each quantity: 
V: V(S<0>) = 3.3 V
I: I(V0:p) = 6.425 uA
Maximum value of each quantity, excluding Verilog-A modules or dangling current sources:
V: V(vout_filt) = 1.6 V
I: I(V0:p) = 6.425 uA

Warning from spectre during check, during DC analysis `dcOp', during Monte Carlo analysis `mc1'.
    WARNING (CMI-2943): Parameter checks have been ignored because the valid value for parameter 'trise' could not be found in 'C1'.
    WARNING (CMI-2943): Parameter checks have been ignored because the valid value for parameter 'trise' could not be found in 'I0.R2.CM'.
    WARNING (CMI-2943): Parameter checks have been ignored because the valid value for parameter 'trise' could not be found in 'I0.R2.CS1'.
    WARNING (CMI-2943): Parameter checks have been ignored because the valid value for parameter 'trise' could not be found in 'I0.R2.CS0'.
    WARNING (CMI-2943): Parameter checks have been ignored because the valid value for parameter 'trise' could not be found in 'I0.C8<3>.C1'.
        Further occurrences of this warning will be suppressed.

Convergence achieved in 17 iterations.
DC simulation time: CPU = 4.831 ms, elapsed = 6.12307 ms.
Total time required for dc analysis `dcOp': CPU = 5.258 ms, elapsed = 6.55007 ms, util. = 80.3%.
Time accumulated: CPU = 25.746 s, elapsed = 27.086 s.
Peak resident memory used = 215 Mbytes.


Notice from spectre during Monte Carlo analysis `mc1'.
    34 warnings suppressed.

dcOpInfo: writing operating point information to rawfile.

Opening the PSF file ../psf/mc1_separate/050/dcOpInfo.info ...

************************************************
Transient Analysis `tran': time = (0 s -> 40 ms)
************************************************

Opening the PSF file ../psf/mc1_separate/050/tran.tran.tran ...

Notice from spectre during IC analysis, during transient analysis `tran', during Monte Carlo analysis `mc1'.
    Bad pivoting is found during DC analysis. Option dc_pivot_check=yes is recommended for possible improvement of convergence.
Warning from spectre during check, during IC analysis, during transient analysis `tran', during Monte Carlo analysis `mc1'.
    WARNING (CMI-2943): Parameter checks have been ignored because the valid value for parameter 'trise' could not be found in 'C1'.
    WARNING (CMI-2943): Parameter checks have been ignored because the valid value for parameter 'trise' could not be found in 'I0.R2.CM'.
    WARNING (CMI-2943): Parameter checks have been ignored because the valid value for parameter 'trise' could not be found in 'I0.R2.CS1'.
    WARNING (CMI-2943): Parameter checks have been ignored because the valid value for parameter 'trise' could not be found in 'I0.R2.CS0'.
    WARNING (CMI-2943): Parameter checks have been ignored because the valid value for parameter 'trise' could not be found in 'I0.C8<3>.C1'.
        Further occurrences of this warning will be suppressed.

Convergence achieved in 17 iterations.
DC simulation time: CPU = 2.295 ms, elapsed = 2.29597 ms.
Important parameter values:
    start = 0 s
    outputstart = 0 s
    stop = 40 ms
    step = 40 us
    maxstep = 400 us
    ic = all
    useprevic = no
    skipdc = no
    reltol = 10e-06
    abstol(V) = 1 uV
    abstol(I) = 1 pA
    temp = 85 C
    tnom = 27 C
    tempeffects = all
    errpreset = conservative
    method = gear2only
    lteratio = 10
    relref = alllocal
    cmin = 0 F
    gmin = 1 pS
    rabsshort = 1 mOhm


Notice from spectre during transient analysis `tran', during Monte Carlo analysis `mc1'.
    Multithreading is disabled due to the size of the design being too small.


Output and IC/nodeset summary:
                 save   8       (current)
                 save   87      (voltage)

    tran: time = 1.02 ms     (2.55 %), step = 48.43 us     (121 m%)
    tran: time = 3.034 ms    (7.58 %), step = 47.39 us     (118 m%)
    tran: time = 5.001 ms    (12.5 %), step = 50 us        (125 m%)
    tran: time = 7.014 ms    (17.5 %), step = 48.96 us     (122 m%)
    tran: time = 9.028 ms    (22.6 %), step = 47.82 us     (120 m%)
    tran: time = 11.04 ms    (27.6 %), step = 46.92 us     (117 m%)
    tran: time = 13.01 ms    (32.5 %), step = 49.53 us     (124 m%)
    tran: time = 15.02 ms    (37.6 %), step = 48.3 us      (121 m%)
    tran: time = 17.04 ms    (42.6 %), step = 47.29 us     (118 m%)
    tran: time = 19 ms       (47.5 %), step = 50 us        (125 m%)
    tran: time = 21.02 ms    (52.5 %), step = 48.83 us     (122 m%)
    tran: time = 23.03 ms    (57.6 %), step = 47.71 us     (119 m%)
    tran: time = 25.04 ms    (62.6 %), step = 46.84 us     (117 m%)
    tran: time = 27.01 ms    (67.5 %), step = 49.38 us     (123 m%)
    tran: time = 29.02 ms    (72.6 %), step = 48.18 us     (120 m%)
    tran: time = 31.04 ms    (77.6 %), step = 47.2 us      (118 m%)
    tran: time = 33 ms       (82.5 %), step = 50 us        (125 m%)
    tran: time = 35.02 ms    (87.5 %), step = 48.69 us     (122 m%)
    tran: time = 37.03 ms    (92.6 %), step = 47.6 us      (119 m%)
    tran: time = 39.04 ms    (97.6 %), step = 46.75 us     (117 m%)
Number of accepted tran steps =             851

Maximum value achieved for any signal of each quantity: 
V: V(S<0>) = 3.3 V
I: I(V0:p) = 6.426 uA
Maximum value of each quantity, excluding Verilog-A modules or dangling current sources:
V: V(vout_filt) = 1.614 V
I: I(V0:p) = 6.426 uA

~~~~~~~~~~~~~~~~~~~~~~~~~~~~~~~~~
Post-Transient Simulation Summary
~~~~~~~~~~~~~~~~~~~~~~~~~~~~~~~~~
   -   To further speed up simulation, consider
          add ++aps on command line
   -   Non-default settings that could significantly slow down simulation
          errpreset = conservative, default moderate
          reltol = 10e-06, default 100e-06 (conservative)
~~~~~~~~~~~~~~~~~~~~~~~~~~~~~~~~~


During simulation, the CPU load for active processors is :
         0 (6.6 %)       1 (8.9 %)       2 (17.9 %)      3 (17.2 %)
         4 (41.4 %)      5 (54.8 %)      6 (19.6 %)      7 (19.4 %)
         8 (14.5 %)      9 (44.8 %)     10 (15.6 %)     11 (100.0 %)
        12 (15.4 %)     13 (22.6 %)     14 (18.4 %)     15 (40.2 %)
        16 (21.2 %)     17 (23.9 %)     18 (54.3 %)     19 (60.9 %)
        20 (39.6 %)     21 (26.1 %)     22 (45.6 %)     23 (29.4 %)
        24 (19.2 %)     25 (22.2 %)     26 (46.2 %)     27 (23.1 %)
        28 (42.7 %)     29 (34.1 %)     30 (27.3 %)     31 (100.0 %)
        32 (15.3 %)     33 (34.2 %)     34 (9.3 %)      35 (6.3 %)
        36 (30.2 %)     37 (26.6 %)     38 (56.7 %)     39 (100.0 %)
        40 (13.5 %)     41 (21.5 %)     42 (26.7 %)     43 (12.3 %)
        44 (16.0 %)     45 (12.8 %)     46 (9.5 %)      47 (5.2 %)
        Total: 1469.1%
Initial condition solution time: CPU = 2.331 ms, elapsed = 2.33293 ms.
Intrinsic tran analysis time:    CPU = 454.577 ms, elapsed = 456.225 ms.
Total time required for tran analysis `tran': CPU = 458.573 ms, elapsed = 460.883 ms, util. = 99.5%.
Time accumulated: CPU = 26.2107 s, elapsed = 27.5551 s.
Peak resident memory used = 215 Mbytes.


Notice from spectre during transient analysis `tran', during Monte Carlo analysis `mc1'.
    34 warnings suppressed.

finalTimeOP: writing operating point information to rawfile.

Opening the PSF file ../psf/mc1_separate/050/finalTimeOP.info ...
modelParameter: writing model parameter values to rawfile.

Opening the PSF file ../psf/mc1_separate/050/modelParameter.info ...
element: writing instance parameter values to rawfile.

Opening the PSF file ../psf/mc1_separate/050/element.info ...
outputParameter: writing output parameter values to rawfile.

Opening the PSF file ../psf/mc1_separate/050/outputParameter.info ...
designParamVals: writing netlist parameters to rawfile.

Opening the PSFASCII file ../psf/mc1_separate/050/designParamVals.info ...
primitives: writing primitives to rawfile.

Opening the PSFASCII file ../psf/mc1_separate/050/primitives.info.primitives ...
subckts: writing subcircuits to rawfile.

Opening the PSFASCII file ../psf/mc1_separate/050/subckts.info.subckts ...
    mc1: iteration = 50           (100 %), step = 1            (2.04 %)
Total time required for montecarlo analysis `mc1': CPU = 25.7892 s, elapsed = 26.6639 s, util. = 96.7%.
Time accumulated: CPU = 26.235 s, elapsed = 27.594 s.
Peak resident memory used = 215 Mbytes.

Licensing Information:
Lic Summary:
[09:09:57.357864] Cdslmd servers:3000@lic08.ug.kth.se:29000@lic06.ug.kth.se
[09:09:57.357896] Feature usage summary:
[09:09:57.357897] Virtuoso_Multi_mode_Simulation


Aggregate audit (9:09:57 AM, Thur Apr 16, 2026):
Time used: CPU = 26.3 s, elapsed = 27.6 s, util. = 95.1%.
Time spent in licensing: elapsed = 47 ms.
Peak memory used = 215 Mbytes.
Simulation started at: 9:09:29 AM, Thur Apr 16, 2026, ended at: 9:09:57 AM, Thur Apr 16, 2026, with elapsed time (wall clock): 27.6 s.
spectre completes with 0 errors, 527 warnings, and 262 notices.
