
Spectre (R) Circuit Simulator
Version 24.1.0.288.isr5 64bit -- 3 Apr 2025
Copyright (C) 1989-2025 Cadence Design Systems, Inc. All rights reserved worldwide. Cadence and Spectre are registered trademarks of Cadence Design Systems, Inc. All others are the property of their respective holders.

Includes RSA BSAFE(R) Cryptographic or Security Protocol Software from RSA Security, Inc.

User: davidevi   Host: il2244vt26_davidevi   HostID: 11AC2C00   PID: 1108553
Memory  available: 3.0419 TB  physical: 3.2467 TB
Linux   : Rocky Linux release 8.10 (Green Obsidian)
CPU Type: Intel(R) Xeon(R) CPU E7-8857 v2 @ 3.00GHz
        Socket: Processors [Frequency]
        0:       0 [3000.0],  1 [1200.0],  2 [2700.0],  3 [2999.9],  4 [1200.0]
                 5 [1200.0],  6 [2999.9],  7 [1200.0],  8 [3600.0],  9 [1200.0]
                10 [1200.0], 11 [1200.0]
        1:      12 [2700.0], 13 [2300.0], 14 [2800.0], 15 [2600.0], 16 [1200.0]
                17 [1200.0], 18 [2600.0], 19 [2999.9], 20 [1200.0], 21 [1200.0]
                22 [3000.0], 23 [2500.0]
        2:      24 [2999.9], 25 [1200.0], 26 [1200.0], 27 [1200.0], 28 [1200.0]
                29 [2999.9], 30 [2500.0], 31 [1200.0], 32 [1200.0], 33 [1200.0]
                34 [1200.0], 35 [1200.0]
        3:      36 [1200.0], 37 [2300.0], 38 [2999.9], 39 [3600.0], 40 [2999.9]
                41 [2100.0], 42 [3000.0], 43 [2800.0], 44 [1200.0], 45 [1200.0]
                46 [1200.0], 47 [1200.0]
        
System load averages (1min, 5min, 15min) : 17.9 %, 16.9 %, 17.7 %
HPC is enabled


Simulating `input.scs' on il2244vt26_davidevi at 10:45:59 AM, Thur Apr 16, 2026 (process id: 1108553).
Current working directory: /home/davidevi/Desktop/myproject/Sim/VGA/VGA_1_tb/adexl/results/data/MonteCarlo.4/40/Linerity_MC/groupRunDataDir/netlist
Command line:
    /opt/tools/cadence/installs/SPECTRE241/tools/bin/spectre -64  \
        input.scs +escchars +log ../psf/spectre.out -format psfbin  \
        +rtsf -raw ../psf +aps +mt +lqtimeout 900 -maxw 5 -maxn 5  \
        +param /opt/pdk/ams/410/spectre/ams_range.lmts -env ade  \
        -ahdllibdir  \
        /home/davidevi/Desktop/myproject/Sim/VGA/VGA_1_tb/adexl/results/data/MonteCarlo.4/sharedData/Job523/ahdl/input.ahdlSimDB  \
        +logstatus  \
        +adespetkn=0001089D13A302B663E41FB550AF0DF415A679A322D5069144BF588C12F604E07EF416DC01A319B562BB63D306D8409145A373F664D843B757CC6EC912ED4F926DF079D15D9175FF34986BDD0AF002BA50FD7FD707E002A700AC1C831CFE42E30EAE79D120F874D3349879D118F874D334981031A51DC9365D7800003667

Simulation Id: 4BKDiscT7d1TNpYh
Licensing Information:
[10:45:59.121794] Configured Lic search path (24.01-s002): 3000@lic08.ug.kth.se:29000@lic06.ug.kth.se

Licensing Information:
[10:45:59.265410] Periodic Lic check successful

Loading /opt/tools/cadence/installs/SPECTRE241/tools.lnx86/cmi/lib/64bit/5.0/libinfineon_sh.so ...
Loading /opt/tools/cadence/installs/SPECTRE241/tools.lnx86/cmi/lib/64bit/5.0/libphilips_I_sh.so ...
Loading /opt/tools/cadence/installs/SPECTRE241/tools.lnx86/cmi/lib/64bit/5.0/libphilips_sh.so ...
Loading /opt/tools/cadence/installs/SPECTRE241/tools.lnx86/cmi/lib/64bit/5.0/libsparam_sh.so ...
Loading /opt/tools/cadence/installs/SPECTRE241/tools.lnx86/cmi/lib/64bit/5.0/libstmodels_sh.so ...

Warning from spectre.
    WARNING (SPECTRE-691): This CPU processor does not support x86 advanced vector extensions instructions. This may affect math operations and slow down the simulation.

Reading file:  /home/davidevi/Desktop/myproject/Sim/VGA/VGA_1_tb/adexl/results/data/MonteCarlo.4/40/Linerity_MC/groupRunDataDir/netlist/input.scs
Reading file:  /opt/pdk/ams/410/spectre/ams_range.lmts

Warning from spectre during read of parameter soft limits file `/opt/pdk/ams/410/spectre/ams_range.lmts', during circuit read-in.
    WARNING (SPECTRE-8360): line 1511: `ac' is an undefined primitive device.
    WARNING (SPECTRE-8360): line 1512: `ac' is an undefined primitive device.
    WARNING (SPECTRE-8360): line 1513: `ac' is an undefined primitive device.
    WARNING (SPECTRE-8360): line 1514: `ac' is an undefined primitive device.
    WARNING (SPECTRE-8360): line 1515: `ac' is an undefined primitive device.
        Further occurrences of this warning will be suppressed.

Reading file:  /opt/tools/cadence/installs/SPECTRE241/tools.lnx86/spectre/etc/configs/spectre.cfg
Reading file:  /opt/pdk/ams/410/spectre/c35/soac/soac.scs
Reading file:  /opt/pdk/ams/410/spectre/c35/soac/processOption.scs
Reading file:  /opt/pdk/ams/410/spectre/c35/soac/process.scs
Reading file:  /opt/pdk/ams/410/spectre/c35/soac/soac.va

Warning from spectre during AHDL read-in.
    WARNING (VACOMP-2435): The environment variable CDS_AHDLCMI_ENABLE is no longer supported. Therefore, the simulator will use the default compiled C code flow.

Reading link:  /opt/tools/cadence/installs/SPECTRE241/tools.lnx86/spectre/etc/ahdl/constants.h
Reading file:  /opt/tools/cadence/installs/SPECTRE241/tools.lnx86/spectre/etc/ahdl/constants.vams
Reading link:  /opt/tools/cadence/installs/SPECTRE241/tools.lnx86/spectre/etc/ahdl/discipline.h
Reading file:  /opt/tools/cadence/installs/SPECTRE241/tools.lnx86/spectre/etc/ahdl/disciplines.vams
Reading file:  /opt/pdk/ams/410/spectre/c35/processOption/C35B4C3.scs
Reading file:  /opt/pdk/ams/410/spectre/c35/soac/cmos53.scs
Reading file:  /opt/pdk/ams/410/spectre/c35/soac/res.scs
Reading file:  /opt/pdk/ams/410/spectre/c35/soac/cap.scs
Reading file:  /opt/pdk/ams/410/spectre/c35/soac/bip.scs
Reading file:  /opt/pdk/ams/410/spectre/c35/soac/ind.scs
Reading file:  /opt/pdk/ams/410/spectre/c35/soac/esddiode.scs
Time for NDB Parsing: CPU = 197.771 ms, elapsed = 357.496 ms.
Time accumulated: CPU = 396.146 ms, elapsed = 357.499 ms.
Peak resident memory used = 175 Mbytes.

Existing shared object for module modn_ahdl is up to date.
Installed compiled interface for modn_ahdl.
Existing shared object for module modp_ahdl is up to date.
Installed compiled interface for modp_ahdl.
Existing shared object for module cpoly_ahdl is up to date.
Installed compiled interface for cpoly_ahdl.
Existing shared object for module rpolyh_ahdl is up to date.
Installed compiled interface for rpolyh_ahdl.
Existing shared object for module bsource_fcab9d is up to date.
Installed compiled interface for bsource_fcab9d.
Time for Elaboration: CPU = 62.406 ms, elapsed = 63.7131 ms.
Time accumulated: CPU = 458.712 ms, elapsed = 421.372 ms.
Peak resident memory used = 188 Mbytes.


Notice from spectre during hierarchy flattening.
    The value 'psf' specified for the 'checklimitdest' option will no longer be supported in future releases. Use 'spectre -h' to see other recommended values for the 'checklimitdest' option.


*****************************************************************************************
* 
* INFO: AMS_processOption = C35B4C3
* 
* INFO: Valid Modules  PIP VG5 HIRES
* 
*****************************************************************************************


Time for EDB Visiting: CPU = 8.511 ms, elapsed = 8.50987 ms.
Time accumulated: CPU = 467.364 ms, elapsed = 430.022 ms.
Peak resident memory used = 191 Mbytes.

Loading /opt/tools/cadence/installs/SPECTRE241/tools.lnx86/mdl/lib/64bit/libSpectreEH_sh.so ...

Warning from spectre during initial setup.
    WARNING (SPECTRE-16460): SOAC_cvarm_vspsub:Specified subcircuit master `cvarm' was not found.
    WARNING (SPECTRE-16462): SOAC_cvarm_vspsub:Error in specification of subcircuit master. Assert is ignored.
    WARNING (SPECTRE-16460): SOAC_cvarm_vbs:Specified subcircuit master `cvarm' was not found.
    WARNING (SPECTRE-16462): SOAC_cvarm_vbs:Error in specification of subcircuit master. Assert is ignored.
    WARNING (SPECTRE-16460): SOAC_cvarm_vgb:Specified subcircuit master `cvarm' was not found.
    WARNING (SPECTRE-16462): SOAC_cvarm_vgb:Error in specification of subcircuit master. Assert is ignored.
    WARNING (SPECTRE-16460): SOAC_cvart_vspsub:Specified subcircuit master `cvart' was not found.
    WARNING (SPECTRE-16462): SOAC_cvart_vspsub:Error in specification of subcircuit master. Assert is ignored.
    WARNING (SPECTRE-16460): SOAC_cvart_vbs:Specified subcircuit master `cvart' was not found.
        Further occurrences of this warning will be suppressed.
    WARNING (SPECTRE-16462): SOAC_cvart_vbs:Error in specification of subcircuit master. Assert is ignored.
        Further occurrences of this warning will be suppressed.
Notice from spectre during topology check.
    Only one connection to the following 52 nodes:
        I0.MN6.psub!
        I0.MN5.psub!
        I0.MN4.psub!
        I0.MN3.psub!
        I0.MN2.psub!
        Further occurrences of this notice will be suppressed.
Notice from spectre during initial setup.
    Multithreading is disabled due to the size of the design being too small.


Netlist title:
        // Point Netlist Generated on: Apr 16 10:45:58 2026


Global user options:
         psfversion = 1.4.0
            vabstol = 1e-06
            iabstol = 1e-12
               temp = 27
           homotopy = 5
              limit = delta
         compatible = spice2
               gmin = 1e-12
             rforce = 1
           maxnotes = 5
           maxwarns = 5
             digits = 5
               cols = 80
             pivrel = 0.001
           sensfile = ../psf/sens.output
     checklimitdest = psf
     enable_pre_ver = yes
      ignorezerovar = yes
               save = allpub
             reltol = 0.0001
               tnom = 27
             scalem = 1
              scale = 1

Scoped user options:

Circuit inventory:
              nodes 84
            bsim3v3 33    
     bsource_fcab9d 2     
          capacitor 38    
         cpoly_ahdl 17    
            isource 1     
          modn_ahdl 19    
          modp_ahdl 14    
           resistor 1     
        rpolyh_ahdl 2     
            vsource 8     

Analysis and control statement inventory:
                 dc 1     
               info 8     
         montecarlo 1     
               tran 1     

Output statements:
             .probe 0     
           .measure 0     
               save 0     

Design checks inventory:
          paramtest 53    
             assert 175   


Notice from spectre during initial setup.
    APS enabled.
    1 notice suppressed.
    72 warnings suppressed.

Time for parsing: CPU = 18.675 ms, elapsed = 645.992 ms.
Time accumulated: CPU = 486.142 ms, elapsed = 1.07612 s.
Peak resident memory used = 197 Mbytes.

~~~~~~~~~~~~~~~~~~~~~~
Pre-Simulation Summary
~~~~~~~~~~~~~~~~~~~~~~
   -   (APS) Multi-threading. The recommended number of threads is 1, consider adding +mt=1 on command line.
~~~~~~~~~~~~~~~~~~~~~~

**************************************************
Monte Carlo Analysis `mc1': iteration = (40 -> 50)
**************************************************
Important parameter values:
    seed = 12345
    sampling = lds
    variations = all
    firstrun = 40
    numruns = 11
    nullmfactorcorrelation = no
    donominal = no
    method = standard
Opening iteration number and data-directory mapping file:  /home/davidevi/Desktop/myproject/Sim/VGA/VGA_1_tb/adexl/results/data/MonteCarlo.4/40/Linerity_MC/groupRunDataDir/netlist/../psf/mc1.mapping

Statistical parameters:
    Defined process parameters: 629
    Defined mismatch parameters (subckt based): 86
    Non-referenced mismatch parameters: 80
    Number of random variables: 714
    Gaussian truncation for process parameters: 4.00 sigma
    Gaussian truncation for mismatch parameters: 4.00 sigma


**** Skipping runs 1 to 39 for `mc1'


Opening the PSF file ../psf/mc1_dcOp.montecarlo ...

Opening the PSF file ../psf/mc1_dcOpInfo.montecarlo ...

Opening the PSF file ../psf/mc1_tran.montecarlo ...

Opening the PSF file ../psf/mc1_finalTimeOP.montecarlo ...

Opening the PSF file ../psf/mc1_modelParameter.montecarlo ...

Opening the PSF file ../psf/mc1_element.montecarlo ...

Opening the PSF file ../psf/mc1_outputParameter.montecarlo ...

Opening the PSF file ../psf/mc1_designParamVals.montecarlo ...

Opening the PSF file ../psf/mc1_primitives.montecarlo ...

Opening the PSF file ../psf/mc1_subckts.montecarlo ...

**** Performing monte carlo loop for `mc1'

40   0.00% 

*****************************************************************************************
* 
* INFO: AMS_processOption = C35B4C3
* 
* INFO: Valid Modules  PIP VG5 HIRES
* 
*****************************************************************************************


******************
DC Analysis `dcOp'
******************

Notice from spectre at iteration = 40 during DC analysis `dcOp', during Monte Carlo analysis `mc1'.
    No checklimit analysis defined for asserts. A default checklimit analysis 'SpectreChecklimitAnal' has been created with all asserts enabled.


Opening the PSF file ../psf/mc1_separate/040/dcOp.dc ...
Important parameter values:
    reltol = 100e-06
    abstol(V) = 1 uV
    abstol(I) = 1 pA
    temp = 27 C
    tnom = 27 C
    tempeffects = all
    gmindc = 1 pS
    rabsshort = 1 mOhm

Notice from spectre at iteration = 40 during DC analysis `dcOp', during Monte Carlo analysis `mc1'.
    Bad pivoting is found during DC analysis. Option dc_pivot_check=yes is recommended for possible improvement of convergence.


Maximum value achieved for any signal of each quantity: 
V: V(net2) = 3.3 V
I: I(V0:p) = 6.492 uA
Maximum value of each quantity, excluding Verilog-A modules or dangling current sources:
V: V(net1) = 1.6 V
I: I(V0:p) = 6.492 uA

Warning from spectre at iteration = 40 during check, during DC analysis `dcOp', during Monte Carlo analysis `mc1'.
    WARNING (CMI-2943): Parameter checks have been ignored because the valid value for parameter 'trise' could not be found in 'C1'.
    WARNING (CMI-2943): Parameter checks have been ignored because the valid value for parameter 'trise' could not be found in 'I0.R2.CM'.
    WARNING (CMI-2943): Parameter checks have been ignored because the valid value for parameter 'trise' could not be found in 'I0.R2.CS1'.
    WARNING (CMI-2943): Parameter checks have been ignored because the valid value for parameter 'trise' could not be found in 'I0.R2.CS0'.
    WARNING (CMI-2943): Parameter checks have been ignored because the valid value for parameter 'trise' could not be found in 'I0.C8<3>.C1'.
        Further occurrences of this warning will be suppressed.

Convergence achieved in 19 iterations.
DC simulation time: CPU = 87.51 ms, elapsed = 92.2511 ms.
Total time required for dc analysis `dcOp': CPU = 88.232 ms, elapsed = 92.972 ms, util. = 94.9%.
Time accumulated: CPU = 656.143 ms, elapsed = 1.26048 s.
Peak resident memory used = 209 Mbytes.


Notice from spectre at iteration = 40 during Monte Carlo analysis `mc1'.
    34 warnings suppressed.

dcOpInfo: writing operating point information to rawfile.

Opening the PSF file ../psf/mc1_separate/040/dcOpInfo.info ...

************************************************
Transient Analysis `tran': time = (0 s -> 40 ms)
************************************************

Opening the PSF file ../psf/mc1_separate/040/tran.tran.tran ...

Notice from spectre at iteration = 40 during IC analysis, during transient analysis `tran', during Monte Carlo analysis `mc1'.
    Bad pivoting is found during DC analysis. Option dc_pivot_check=yes is recommended for possible improvement of convergence.
Warning from spectre at iteration = 40 during check, during IC analysis, during transient analysis `tran', during Monte Carlo analysis `mc1'.
    WARNING (CMI-2943): Parameter checks have been ignored because the valid value for parameter 'trise' could not be found in 'C1'.
    WARNING (CMI-2943): Parameter checks have been ignored because the valid value for parameter 'trise' could not be found in 'I0.R2.CM'.
    WARNING (CMI-2943): Parameter checks have been ignored because the valid value for parameter 'trise' could not be found in 'I0.R2.CS1'.
    WARNING (CMI-2943): Parameter checks have been ignored because the valid value for parameter 'trise' could not be found in 'I0.R2.CS0'.
    WARNING (CMI-2943): Parameter checks have been ignored because the valid value for parameter 'trise' could not be found in 'I0.C8<3>.C1'.
        Further occurrences of this warning will be suppressed.

Convergence achieved in 19 iterations.
DC simulation time: CPU = 3.228 ms, elapsed = 3.2289 ms.
Important parameter values:
    start = 0 s
    outputstart = 0 s
    stop = 40 ms
    step = 40 us
    maxstep = 400 us
    ic = all
    useprevic = no
    skipdc = no
    reltol = 10e-06
    abstol(V) = 1 uV
    abstol(I) = 1 pA
    temp = 27 C
    tnom = 27 C
    tempeffects = all
    errpreset = conservative
    method = gear2only
    lteratio = 10
    relref = alllocal
    cmin = 0 F
    gmin = 1 pS
    rabsshort = 1 mOhm


Notice from spectre at iteration = 40 during transient analysis `tran', during Monte Carlo analysis `mc1'.
    Multithreading is disabled due to the size of the design being too small.


Output and IC/nodeset summary:
                 save   8       (current)
                 save   83      (voltage)

    tran: time = 1.012 ms    (2.53 %), step = 49.22 us     (123 m%)
    tran: time = 3.026 ms    (7.56 %), step = 48.05 us     (120 m%)
    tran: time = 5.039 ms    (12.6 %), step = 47.1 us      (118 m%)
    tran: time = 7.006 ms    (17.5 %), step = 49.83 us     (125 m%)
    tran: time = 9.02 ms     (22.5 %), step = 48.55 us     (121 m%)
    tran: time = 11.03 ms    (27.6 %), step = 47.49 us     (119 m%)
    tran: time = 13 ms       (32.5 %), step = 50 us        (125 m%)
    tran: time = 15.01 ms    (37.5 %), step = 49.1 us      (123 m%)
    tran: time = 17.03 ms    (42.6 %), step = 47.94 us     (120 m%)
    tran: time = 19.04 ms    (47.6 %), step = 47.01 us     (118 m%)
    tran: time = 21.01 ms    (52.5 %), step = 49.69 us     (124 m%)
    tran: time = 23.02 ms    (57.6 %), step = 48.44 us     (121 m%)
    tran: time = 25.03 ms    (62.6 %), step = 47.4 us      (118 m%)
    tran: time = 27 ms       (67.5 %), step = 50 us        (125 m%)
    tran: time = 29.01 ms    (72.5 %), step = 48.97 us     (122 m%)
    tran: time = 31.03 ms    (77.6 %), step = 47.82 us     (120 m%)
    tran: time = 33.04 ms    (82.6 %), step = 46.92 us     (117 m%)
    tran: time = 35.01 ms    (87.5 %), step = 49.53 us     (124 m%)
    tran: time = 37.02 ms    (92.6 %), step = 48.31 us     (121 m%)
    tran: time = 39.04 ms    (97.6 %), step = 47.3 us      (118 m%)
Number of accepted tran steps =             851

Maximum value achieved for any signal of each quantity: 
V: V(net2) = 3.3 V
I: I(V0:p) = 6.493 uA
Maximum value of each quantity, excluding Verilog-A modules or dangling current sources:
V: V(vout_filt) = 1.614 V
I: I(V0:p) = 6.493 uA

~~~~~~~~~~~~~~~~~~~~~~~~~~~~~~~~~
Post-Transient Simulation Summary
~~~~~~~~~~~~~~~~~~~~~~~~~~~~~~~~~
   -   To further speed up simulation, consider
          add ++aps on command line
   -   Non-default settings that could significantly slow down simulation
          errpreset = conservative, default moderate
          reltol = 10e-06, default 100e-06 (conservative)
~~~~~~~~~~~~~~~~~~~~~~~~~~~~~~~~~


During simulation, the CPU load for active processors is :
         0 (18.5 %)      1 (33.1 %)      2 (5.4 %)       3 (41.8 %)
         4 (2.4 %)       5 (3.0 %)       6 (99.4 %)      7 (3.6 %)
         8 (2.4 %)       9 (5.3 %)      10 (4.8 %)      11 (4.2 %)
        12 (16.4 %)     13 (3.0 %)      14 (11.2 %)     15 (1.8 %)
        16 (31.1 %)     17 (10.6 %)     18 (50.6 %)     19 (100.0 %)
        20 (1.2 %)      21 (6.0 %)      22 (2.4 %)      23 (1.8 %)
        24 (100.0 %)    25 (3.5 %)      26 (12.2 %)     27 (2.4 %)
        28 (19.9 %)     29 (100.0 %)    30 (7.1 %)      31 (4.8 %)
        32 (1.8 %)      33 (27.1 %)     34 (61.2 %)     35 (7.6 %)
        36 (4.2 %)      37 (3.6 %)      38 (65.5 %)     39 (2.4 %)
        40 (100.0 %)    41 (7.8 %)      42 (28.8 %)     43 (4.8 %)
        44 (4.1 %)      45 (4.1 %)      46 (7.0 %)      47 (7.1 %)
        Total: 1046.7%
Initial condition solution time: CPU = 3.27 ms, elapsed = 3.27206 ms.
Intrinsic tran analysis time:    CPU = 496.991 ms, elapsed = 499.539 ms.
Total time required for tran analysis `tran': CPU = 502.66 ms, elapsed = 505.889 ms, util. = 99.4%.
Time accumulated: CPU = 1.16817 s, elapsed = 1.77958 s.
Peak resident memory used = 213 Mbytes.


Notice from spectre during transient analysis `tran', during Monte Carlo analysis `mc1'.
    34 warnings suppressed.

finalTimeOP: writing operating point information to rawfile.

Opening the PSF file ../psf/mc1_separate/040/finalTimeOP.info ...
modelParameter: writing model parameter values to rawfile.

Opening the PSF file ../psf/mc1_separate/040/modelParameter.info ...
element: writing instance parameter values to rawfile.

Opening the PSF file ../psf/mc1_separate/040/element.info ...
outputParameter: writing output parameter values to rawfile.

Opening the PSF file ../psf/mc1_separate/040/outputParameter.info ...
designParamVals: writing netlist parameters to rawfile.

Opening the PSFASCII file ../psf/mc1_separate/040/designParamVals.info ...
primitives: writing primitives to rawfile.

Opening the PSFASCII file ../psf/mc1_separate/040/primitives.info.primitives ...
subckts: writing subcircuits to rawfile.

Opening the PSFASCII file ../psf/mc1_separate/040/subckts.info.subckts ...
41  10.00% 

*****************************************************************************************
* 
* INFO: AMS_processOption = C35B4C3
* 
* INFO: Valid Modules  PIP VG5 HIRES
* 
*****************************************************************************************


******************
DC Analysis `dcOp'
******************

Opening the PSF file ../psf/mc1_separate/041/dcOp.dc ...
Important parameter values:
    reltol = 100e-06
    abstol(V) = 1 uV
    abstol(I) = 1 pA
    temp = 27 C
    tnom = 27 C
    tempeffects = all
    gmindc = 1 pS
    rabsshort = 1 mOhm

Notice from spectre during DC analysis `dcOp', during Monte Carlo analysis `mc1'.
    Bad pivoting is found during DC analysis. Option dc_pivot_check=yes is recommended for possible improvement of convergence.


Maximum value achieved for any signal of each quantity: 
V: V(net2) = 3.3 V
I: I(V0:p) = 6.371 uA
Maximum value of each quantity, excluding Verilog-A modules or dangling current sources:
V: V(net1) = 1.6 V
I: I(V0:p) = 6.371 uA

Warning from spectre during check, during DC analysis `dcOp', during Monte Carlo analysis `mc1'.
    WARNING (CMI-2943): Parameter checks have been ignored because the valid value for parameter 'trise' could not be found in 'C1'.
    WARNING (CMI-2943): Parameter checks have been ignored because the valid value for parameter 'trise' could not be found in 'I0.R2.CM'.
    WARNING (CMI-2943): Parameter checks have been ignored because the valid value for parameter 'trise' could not be found in 'I0.R2.CS1'.
    WARNING (CMI-2943): Parameter checks have been ignored because the valid value for parameter 'trise' could not be found in 'I0.R2.CS0'.
    WARNING (CMI-2943): Parameter checks have been ignored because the valid value for parameter 'trise' could not be found in 'I0.C8<3>.C1'.
        Further occurrences of this warning will be suppressed.

Convergence achieved in 19 iterations.
DC simulation time: CPU = 5.98 ms, elapsed = 7.36213 ms.
Total time required for dc analysis `dcOp': CPU = 6.465 ms, elapsed = 7.84612 ms, util. = 82.4%.
Time accumulated: CPU = 1.22322 s, elapsed = 1.84725 s.
Peak resident memory used = 213 Mbytes.


Notice from spectre during Monte Carlo analysis `mc1'.
    34 warnings suppressed.

dcOpInfo: writing operating point information to rawfile.

Opening the PSF file ../psf/mc1_separate/041/dcOpInfo.info ...

************************************************
Transient Analysis `tran': time = (0 s -> 40 ms)
************************************************

Opening the PSF file ../psf/mc1_separate/041/tran.tran.tran ...

Notice from spectre during IC analysis, during transient analysis `tran', during Monte Carlo analysis `mc1'.
    Bad pivoting is found during DC analysis. Option dc_pivot_check=yes is recommended for possible improvement of convergence.
Warning from spectre during check, during IC analysis, during transient analysis `tran', during Monte Carlo analysis `mc1'.
    WARNING (CMI-2943): Parameter checks have been ignored because the valid value for parameter 'trise' could not be found in 'C1'.
    WARNING (CMI-2943): Parameter checks have been ignored because the valid value for parameter 'trise' could not be found in 'I0.R2.CM'.
    WARNING (CMI-2943): Parameter checks have been ignored because the valid value for parameter 'trise' could not be found in 'I0.R2.CS1'.
    WARNING (CMI-2943): Parameter checks have been ignored because the valid value for parameter 'trise' could not be found in 'I0.R2.CS0'.
    WARNING (CMI-2943): Parameter checks have been ignored because the valid value for parameter 'trise' could not be found in 'I0.C8<3>.C1'.
        Further occurrences of this warning will be suppressed.

Convergence achieved in 19 iterations.
DC simulation time: CPU = 2.815 ms, elapsed = 2.81596 ms.
Important parameter values:
    start = 0 s
    outputstart = 0 s
    stop = 40 ms
    step = 40 us
    maxstep = 400 us
    ic = all
    useprevic = no
    skipdc = no
    reltol = 10e-06
    abstol(V) = 1 uV
    abstol(I) = 1 pA
    temp = 27 C
    tnom = 27 C
    tempeffects = all
    errpreset = conservative
    method = gear2only
    lteratio = 10
    relref = alllocal
    cmin = 0 F
    gmin = 1 pS
    rabsshort = 1 mOhm


Notice from spectre during transient analysis `tran', during Monte Carlo analysis `mc1'.
    Multithreading is disabled due to the size of the design being too small.


Output and IC/nodeset summary:
                 save   8       (current)
                 save   83      (voltage)

    tran: time = 1.022 ms    (2.56 %), step = 48.32 us     (121 m%)
    tran: time = 3.036 ms    (7.59 %), step = 47.32 us     (118 m%)
    tran: time = 5.003 ms    (12.5 %), step = 50 us        (125 m%)
    tran: time = 7.016 ms    (17.5 %), step = 48.89 us     (122 m%)
    tran: time = 9.029 ms    (22.6 %), step = 47.78 us     (119 m%)
    tran: time = 11.04 ms    (27.6 %), step = 46.9 us      (117 m%)
    tran: time = 13.01 ms    (32.5 %), step = 49.52 us     (124 m%)
    tran: time = 15.02 ms    (37.6 %), step = 48.31 us     (121 m%)
    tran: time = 17.04 ms    (42.6 %), step = 47.31 us     (118 m%)
    tran: time = 19 ms       (47.5 %), step = 50 us        (125 m%)
    tran: time = 21.02 ms    (52.5 %), step = 48.88 us     (122 m%)
    tran: time = 23.03 ms    (57.6 %), step = 47.77 us     (119 m%)
    tran: time = 25.04 ms    (62.6 %), step = 46.89 us     (117 m%)
    tran: time = 27.01 ms    (67.5 %), step = 49.51 us     (124 m%)
    tran: time = 29.02 ms    (72.6 %), step = 48.3 us      (121 m%)
    tran: time = 31.04 ms    (77.6 %), step = 47.3 us      (118 m%)
    tran: time = 33 ms       (82.5 %), step = 50 us        (125 m%)
    tran: time = 35.02 ms    (87.5 %), step = 48.87 us     (122 m%)
    tran: time = 37.03 ms    (92.6 %), step = 47.76 us     (119 m%)
    tran: time = 39.04 ms    (97.6 %), step = 46.89 us     (117 m%)
Number of accepted tran steps =             851

Maximum value achieved for any signal of each quantity: 
V: V(net2) = 3.3 V
I: I(V0:p) = 6.371 uA
Maximum value of each quantity, excluding Verilog-A modules or dangling current sources:
V: V(vout_filt) = 1.613 V
I: I(V0:p) = 6.371 uA

~~~~~~~~~~~~~~~~~~~~~~~~~~~~~~~~~
Post-Transient Simulation Summary
~~~~~~~~~~~~~~~~~~~~~~~~~~~~~~~~~
   -   To further speed up simulation, consider
          add ++aps on command line
   -   Non-default settings that could significantly slow down simulation
          errpreset = conservative, default moderate
          reltol = 10e-06, default 100e-06 (conservative)
~~~~~~~~~~~~~~~~~~~~~~~~~~~~~~~~~


During simulation, the CPU load for active processors is :
         0 (14.8 %)      1 (26.0 %)      2 (6.3 %)       3 (55.7 %)
         4 (4.0 %)       5 (9.4 %)       6 (99.6 %)      7 (20.9 %)
         8 (7.6 %)       9 (5.3 %)      10 (4.4 %)      11 (5.8 %)
        12 (13.5 %)     13 (2.2 %)      14 (14.1 %)     15 (1.8 %)
        16 (24.0 %)     17 (8.4 %)      18 (62.7 %)     19 (100.0 %)
        21 (4.4 %)      22 (1.8 %)      23 (1.8 %)      24 (100.0 %)
        25 (2.7 %)      26 (9.2 %)      27 (2.2 %)      28 (19.7 %)
        29 (100.0 %)    30 (5.7 %)      31 (4.0 %)      32 (4.5 %)
        33 (20.3 %)     34 (69.7 %)     35 (7.4 %)      36 (6.3 %)
        37 (3.9 %)      38 (73.7 %)     39 (1.8 %)      40 (100.0 %)
        41 (7.1 %)      42 (22.0 %)     43 (4.4 %)      44 (3.5 %)
        45 (3.5 %)      46 (6.1 %)      47 (5.3 %)      
        Total: 1078.5%
Initial condition solution time: CPU = 2.857 ms, elapsed = 2.85816 ms.
Intrinsic tran analysis time:    CPU = 493.801 ms, elapsed = 495.579 ms.
Total time required for tran analysis `tran': CPU = 498.493 ms, elapsed = 500.906 ms, util. = 99.5%.
Time accumulated: CPU = 1.72893 s, elapsed = 2.35769 s.
Peak resident memory used = 213 Mbytes.


Notice from spectre during transient analysis `tran', during Monte Carlo analysis `mc1'.
    34 warnings suppressed.

finalTimeOP: writing operating point information to rawfile.

Opening the PSF file ../psf/mc1_separate/041/finalTimeOP.info ...
modelParameter: writing model parameter values to rawfile.

Opening the PSF file ../psf/mc1_separate/041/modelParameter.info ...
element: writing instance parameter values to rawfile.

Opening the PSF file ../psf/mc1_separate/041/element.info ...
outputParameter: writing output parameter values to rawfile.

Opening the PSF file ../psf/mc1_separate/041/outputParameter.info ...
designParamVals: writing netlist parameters to rawfile.

Opening the PSFASCII file ../psf/mc1_separate/041/designParamVals.info ...
primitives: writing primitives to rawfile.

Opening the PSFASCII file ../psf/mc1_separate/041/primitives.info.primitives ...
subckts: writing subcircuits to rawfile.

Opening the PSFASCII file ../psf/mc1_separate/041/subckts.info.subckts ...
    mc1: iteration = 41            (10 %), step = 1              (10 %)
42  20.00% 

*****************************************************************************************
* 
* INFO: AMS_processOption = C35B4C3
* 
* INFO: Valid Modules  PIP VG5 HIRES
* 
*****************************************************************************************


******************
DC Analysis `dcOp'
******************

Opening the PSF file ../psf/mc1_separate/042/dcOp.dc ...
Important parameter values:
    reltol = 100e-06
    abstol(V) = 1 uV
    abstol(I) = 1 pA
    temp = 27 C
    tnom = 27 C
    tempeffects = all
    gmindc = 1 pS
    rabsshort = 1 mOhm

Notice from spectre during DC analysis `dcOp', during Monte Carlo analysis `mc1'.
    Bad pivoting is found during DC analysis. Option dc_pivot_check=yes is recommended for possible improvement of convergence.


Maximum value achieved for any signal of each quantity: 
V: V(net2) = 3.3 V
I: I(V0:p) = 6.45 uA
Maximum value of each quantity, excluding Verilog-A modules or dangling current sources:
V: V(vout_filt) = 1.601 V
I: I(V0:p) = 6.45 uA

Warning from spectre during check, during DC analysis `dcOp', during Monte Carlo analysis `mc1'.
    WARNING (CMI-2943): Parameter checks have been ignored because the valid value for parameter 'trise' could not be found in 'C1'.
    WARNING (CMI-2943): Parameter checks have been ignored because the valid value for parameter 'trise' could not be found in 'I0.R2.CM'.
    WARNING (CMI-2943): Parameter checks have been ignored because the valid value for parameter 'trise' could not be found in 'I0.R2.CS1'.
    WARNING (CMI-2943): Parameter checks have been ignored because the valid value for parameter 'trise' could not be found in 'I0.R2.CS0'.
    WARNING (CMI-2943): Parameter checks have been ignored because the valid value for parameter 'trise' could not be found in 'I0.C8<3>.C1'.
        Further occurrences of this warning will be suppressed.

Convergence achieved in 17 iterations.
DC simulation time: CPU = 5.593 ms, elapsed = 6.90889 ms.
Total time required for dc analysis `dcOp': CPU = 6.012 ms, elapsed = 7.32493 ms, util. = 82.1%.
Time accumulated: CPU = 1.77706 s, elapsed = 2.41835 s.
Peak resident memory used = 213 Mbytes.


Notice from spectre during Monte Carlo analysis `mc1'.
    34 warnings suppressed.

dcOpInfo: writing operating point information to rawfile.

Opening the PSF file ../psf/mc1_separate/042/dcOpInfo.info ...

************************************************
Transient Analysis `tran': time = (0 s -> 40 ms)
************************************************

Opening the PSF file ../psf/mc1_separate/042/tran.tran.tran ...

Notice from spectre during IC analysis, during transient analysis `tran', during Monte Carlo analysis `mc1'.
    Bad pivoting is found during DC analysis. Option dc_pivot_check=yes is recommended for possible improvement of convergence.
Warning from spectre during check, during IC analysis, during transient analysis `tran', during Monte Carlo analysis `mc1'.
    WARNING (CMI-2943): Parameter checks have been ignored because the valid value for parameter 'trise' could not be found in 'C1'.
    WARNING (CMI-2943): Parameter checks have been ignored because the valid value for parameter 'trise' could not be found in 'I0.R2.CM'.
    WARNING (CMI-2943): Parameter checks have been ignored because the valid value for parameter 'trise' could not be found in 'I0.R2.CS1'.
    WARNING (CMI-2943): Parameter checks have been ignored because the valid value for parameter 'trise' could not be found in 'I0.R2.CS0'.
    WARNING (CMI-2943): Parameter checks have been ignored because the valid value for parameter 'trise' could not be found in 'I0.C8<3>.C1'.
        Further occurrences of this warning will be suppressed.

Convergence achieved in 17 iterations.
DC simulation time: CPU = 2.923 ms, elapsed = 2.9242 ms.
Important parameter values:
    start = 0 s
    outputstart = 0 s
    stop = 40 ms
    step = 40 us
    maxstep = 400 us
    ic = all
    useprevic = no
    skipdc = no
    reltol = 10e-06
    abstol(V) = 1 uV
    abstol(I) = 1 pA
    temp = 27 C
    tnom = 27 C
    tempeffects = all
    errpreset = conservative
    method = gear2only
    lteratio = 10
    relref = alllocal
    cmin = 0 F
    gmin = 1 pS
    rabsshort = 1 mOhm


Notice from spectre during transient analysis `tran', during Monte Carlo analysis `mc1'.
    Multithreading is disabled due to the size of the design being too small.


Output and IC/nodeset summary:
                 save   8       (current)
                 save   83      (voltage)

    tran: time = 1.006 ms    (2.51 %), step = 49.94 us     (125 m%)
    tran: time = 3.019 ms    (7.55 %), step = 48.61 us     (122 m%)
    tran: time = 5.033 ms    (12.6 %), step = 47.51 us     (119 m%)
    tran: time = 7 ms        (17.5 %), step = 50 us        (125 m%)
    tran: time = 9.014 ms    (22.5 %), step = 49.05 us     (123 m%)
    tran: time = 11.03 ms    (27.6 %), step = 47.86 us     (120 m%)
    tran: time = 13.04 ms    (32.6 %), step = 46.94 us     (117 m%)
    tran: time = 15.01 ms    (37.5 %), step = 49.51 us     (124 m%)
    tran: time = 17.02 ms    (42.6 %), step = 48.26 us     (121 m%)
    tran: time = 19.04 ms    (47.6 %), step = 47.24 us     (118 m%)
    tran: time = 21 ms       (52.5 %), step = 50 us        (125 m%)
    tran: time = 23.02 ms    (57.5 %), step = 48.67 us     (122 m%)
    tran: time = 25.03 ms    (62.6 %), step = 47.56 us     (119 m%)
    tran: time = 27.05 ms    (67.6 %), step = 46.7 us      (117 m%)
    tran: time = 29.01 ms    (72.5 %), step = 49.11 us     (123 m%)
    tran: time = 31.03 ms    (77.6 %), step = 47.92 us     (120 m%)
    tran: time = 33.04 ms    (82.6 %), step = 46.98 us     (117 m%)
    tran: time = 35.01 ms    (87.5 %), step = 49.59 us     (124 m%)
    tran: time = 37.02 ms    (92.6 %), step = 48.32 us     (121 m%)
    tran: time = 39.04 ms    (97.6 %), step = 47.28 us     (118 m%)
Number of accepted tran steps =             851

Maximum value achieved for any signal of each quantity: 
V: V(net2) = 3.3 V
I: I(V0:p) = 6.451 uA
Maximum value of each quantity, excluding Verilog-A modules or dangling current sources:
V: V(vout_filt) = 1.615 V
I: I(V0:p) = 6.451 uA

~~~~~~~~~~~~~~~~~~~~~~~~~~~~~~~~~
Post-Transient Simulation Summary
~~~~~~~~~~~~~~~~~~~~~~~~~~~~~~~~~
   -   To further speed up simulation, consider
          add ++aps on command line
   -   Non-default settings that could significantly slow down simulation
          errpreset = conservative, default moderate
          reltol = 10e-06, default 100e-06 (conservative)
~~~~~~~~~~~~~~~~~~~~~~~~~~~~~~~~~


During simulation, the CPU load for active processors is :
         0 (29.4 %)      1 (22.2 %)      2 (5.8 %)       3 (47.3 %)
         4 (6.4 %)       5 (8.5 %)       6 (99.7 %)      7 (32.7 %)
         8 (6.4 %)       9 (4.6 %)      10 (4.6 %)      11 (6.4 %)
        12 (12.5 %)     13 (3.2 %)      14 (15.9 %)     15 (3.2 %)
        16 (20.3 %)     17 (7.7 %)      18 (69.8 %)     19 (100.0 %)
        20 (1.4 %)      21 (4.6 %)      22 (1.8 %)      23 (17.0 %)
        24 (100.0 %)    25 (2.8 %)      26 (26.7 %)     27 (2.1 %)
        28 (20.4 %)     29 (100.0 %)    30 (5.3 %)      31 (20.3 %)
        32 (3.9 %)      33 (17.0 %)     34 (56.9 %)     35 (8.4 %)
        36 (5.8 %)      37 (4.9 %)      38 (78.2 %)     39 (3.2 %)
        40 (100.0 %)    41 (8.6 %)      42 (18.7 %)     43 (3.9 %)
        44 (2.8 %)      45 (2.8 %)      46 (5.6 %)      47 (5.0 %)
        Total: 1135.3%
Initial condition solution time: CPU = 2.965 ms, elapsed = 2.96688 ms.
Intrinsic tran analysis time:    CPU = 488.901 ms, elapsed = 490.206 ms.
Total time required for tran analysis `tran': CPU = 493.953 ms, elapsed = 495.906 ms, util. = 99.6%.
Time accumulated: CPU = 2.27787 s, elapsed = 2.9237 s.
Peak resident memory used = 213 Mbytes.


Notice from spectre during transient analysis `tran', during Monte Carlo analysis `mc1'.
    34 warnings suppressed.

finalTimeOP: writing operating point information to rawfile.

Opening the PSF file ../psf/mc1_separate/042/finalTimeOP.info ...
modelParameter: writing model parameter values to rawfile.

Opening the PSF file ../psf/mc1_separate/042/modelParameter.info ...
element: writing instance parameter values to rawfile.

Opening the PSF file ../psf/mc1_separate/042/element.info ...
outputParameter: writing output parameter values to rawfile.

Opening the PSF file ../psf/mc1_separate/042/outputParameter.info ...
designParamVals: writing netlist parameters to rawfile.

Opening the PSFASCII file ../psf/mc1_separate/042/designParamVals.info ...
primitives: writing primitives to rawfile.

Opening the PSFASCII file ../psf/mc1_separate/042/primitives.info.primitives ...
subckts: writing subcircuits to rawfile.

Opening the PSFASCII file ../psf/mc1_separate/042/subckts.info.subckts ...
    mc1: iteration = 42            (20 %), step = 1              (10 %)
43  30.00% 

*****************************************************************************************
* 
* INFO: AMS_processOption = C35B4C3
* 
* INFO: Valid Modules  PIP VG5 HIRES
* 
*****************************************************************************************


******************
DC Analysis `dcOp'
******************

Opening the PSF file ../psf/mc1_separate/043/dcOp.dc ...
Important parameter values:
    reltol = 100e-06
    abstol(V) = 1 uV
    abstol(I) = 1 pA
    temp = 27 C
    tnom = 27 C
    tempeffects = all
    gmindc = 1 pS
    rabsshort = 1 mOhm

Notice from spectre during DC analysis `dcOp', during Monte Carlo analysis `mc1'.
    Bad pivoting is found during DC analysis. Option dc_pivot_check=yes is recommended for possible improvement of convergence.


Maximum value achieved for any signal of each quantity: 
V: V(net2) = 3.3 V
I: I(V0:p) = 6.542 uA
Maximum value of each quantity, excluding Verilog-A modules or dangling current sources:
V: V(net1) = 1.6 V
I: I(V0:p) = 6.542 uA

Warning from spectre during check, during DC analysis `dcOp', during Monte Carlo analysis `mc1'.
    WARNING (CMI-2943): Parameter checks have been ignored because the valid value for parameter 'trise' could not be found in 'C1'.
    WARNING (CMI-2943): Parameter checks have been ignored because the valid value for parameter 'trise' could not be found in 'I0.R2.CM'.
    WARNING (CMI-2943): Parameter checks have been ignored because the valid value for parameter 'trise' could not be found in 'I0.R2.CS1'.
    WARNING (CMI-2943): Parameter checks have been ignored because the valid value for parameter 'trise' could not be found in 'I0.R2.CS0'.
    WARNING (CMI-2943): Parameter checks have been ignored because the valid value for parameter 'trise' could not be found in 'I0.C8<3>.C1'.
        Further occurrences of this warning will be suppressed.

Convergence achieved in 19 iterations.
DC simulation time: CPU = 5.543 ms, elapsed = 6.98495 ms.
Total time required for dc analysis `dcOp': CPU = 5.927 ms, elapsed = 7.3669 ms, util. = 80.5%.
Time accumulated: CPU = 2.32568 s, elapsed = 2.98434 s.
Peak resident memory used = 213 Mbytes.


Notice from spectre during Monte Carlo analysis `mc1'.
    34 warnings suppressed.

dcOpInfo: writing operating point information to rawfile.

Opening the PSF file ../psf/mc1_separate/043/dcOpInfo.info ...

************************************************
Transient Analysis `tran': time = (0 s -> 40 ms)
************************************************

Opening the PSF file ../psf/mc1_separate/043/tran.tran.tran ...

Notice from spectre during IC analysis, during transient analysis `tran', during Monte Carlo analysis `mc1'.
    Bad pivoting is found during DC analysis. Option dc_pivot_check=yes is recommended for possible improvement of convergence.
Warning from spectre during check, during IC analysis, during transient analysis `tran', during Monte Carlo analysis `mc1'.
    WARNING (CMI-2943): Parameter checks have been ignored because the valid value for parameter 'trise' could not be found in 'C1'.
    WARNING (CMI-2943): Parameter checks have been ignored because the valid value for parameter 'trise' could not be found in 'I0.R2.CM'.
    WARNING (CMI-2943): Parameter checks have been ignored because the valid value for parameter 'trise' could not be found in 'I0.R2.CS1'.
    WARNING (CMI-2943): Parameter checks have been ignored because the valid value for parameter 'trise' could not be found in 'I0.R2.CS0'.
    WARNING (CMI-2943): Parameter checks have been ignored because the valid value for parameter 'trise' could not be found in 'I0.C8<3>.C1'.
        Further occurrences of this warning will be suppressed.

Convergence achieved in 19 iterations.
DC simulation time: CPU = 2.675 ms, elapsed = 2.6772 ms.
Important parameter values:
    start = 0 s
    outputstart = 0 s
    stop = 40 ms
    step = 40 us
    maxstep = 400 us
    ic = all
    useprevic = no
    skipdc = no
    reltol = 10e-06
    abstol(V) = 1 uV
    abstol(I) = 1 pA
    temp = 27 C
    tnom = 27 C
    tempeffects = all
    errpreset = conservative
    method = gear2only
    lteratio = 10
    relref = alllocal
    cmin = 0 F
    gmin = 1 pS
    rabsshort = 1 mOhm


Notice from spectre during transient analysis `tran', during Monte Carlo analysis `mc1'.
    Multithreading is disabled due to the size of the design being too small.


Output and IC/nodeset summary:
                 save   8       (current)
                 save   83      (voltage)

    tran: time = 1.023 ms    (2.56 %), step = 48.23 us     (121 m%)
    tran: time = 3.036 ms    (7.59 %), step = 47.25 us     (118 m%)
    tran: time = 5.003 ms    (12.5 %), step = 50 us        (125 m%)
    tran: time = 7.016 ms    (17.5 %), step = 48.82 us     (122 m%)
    tran: time = 9.03 ms     (22.6 %), step = 47.72 us     (119 m%)
    tran: time = 11.04 ms    (27.6 %), step = 46.86 us     (117 m%)
    tran: time = 13.01 ms    (32.5 %), step = 49.45 us     (124 m%)
    tran: time = 15.02 ms    (37.6 %), step = 48.26 us     (121 m%)
    tran: time = 17.04 ms    (42.6 %), step = 47.27 us     (118 m%)
    tran: time = 19 ms       (47.5 %), step = 50 us        (125 m%)
    tran: time = 21.02 ms    (52.5 %), step = 48.85 us     (122 m%)
    tran: time = 23.03 ms    (57.6 %), step = 47.74 us     (119 m%)
    tran: time = 25.04 ms    (62.6 %), step = 46.88 us     (117 m%)
    tran: time = 27.01 ms    (67.5 %), step = 49.48 us     (124 m%)
    tran: time = 29.02 ms    (72.6 %), step = 48.28 us     (121 m%)
    tran: time = 31.04 ms    (77.6 %), step = 47.29 us     (118 m%)
    tran: time = 33 ms       (82.5 %), step = 50 us        (125 m%)
    tran: time = 35.02 ms    (87.5 %), step = 48.87 us     (122 m%)
    tran: time = 37.03 ms    (92.6 %), step = 47.76 us     (119 m%)
    tran: time = 39.04 ms    (97.6 %), step = 46.89 us     (117 m%)
Number of accepted tran steps =             851

Maximum value achieved for any signal of each quantity: 
V: V(net2) = 3.3 V
I: I(V0:p) = 6.542 uA
Maximum value of each quantity, excluding Verilog-A modules or dangling current sources:
V: V(vout_filt) = 1.612 V
I: I(V0:p) = 6.542 uA

~~~~~~~~~~~~~~~~~~~~~~~~~~~~~~~~~
Post-Transient Simulation Summary
~~~~~~~~~~~~~~~~~~~~~~~~~~~~~~~~~
   -   To further speed up simulation, consider
          add ++aps on command line
   -   Non-default settings that could significantly slow down simulation
          errpreset = conservative, default moderate
          reltol = 10e-06, default 100e-06 (conservative)
~~~~~~~~~~~~~~~~~~~~~~~~~~~~~~~~~


During simulation, the CPU load for active processors is :
         0 (40.0 %)      1 (19.8 %)      2 (4.8 %)       3 (39.8 %)
         4 (6.2 %)       5 (7.2 %)       6 (99.7 %)      7 (28.6 %)
         8 (6.0 %)       9 (4.7 %)      10 (4.2 %)      11 (6.0 %)
        12 (12.8 %)     13 (2.7 %)      14 (13.9 %)     15 (5.6 %)
        16 (17.3 %)     17 (7.4 %)      18 (72.6 %)     19 (100.0 %)
        20 (17.9 %)     21 (4.5 %)      22 (5.1 %)      23 (19.2 %)
        24 (100.0 %)    25 (14.2 %)     26 (23.4 %)     27 (1.8 %)
        28 (17.7 %)     29 (100.0 %)    30 (4.7 %)      31 (33.4 %)
        32 (4.2 %)      33 (14.2 %)     34 (62.4 %)     35 (7.6 %)
        36 (20.6 %)     37 (7.9 %)      38 (81.1 %)     39 (3.6 %)
        40 (100.0 %)    41 (8.4 %)      42 (16.3 %)     43 (3.9 %)
        44 (2.7 %)      45 (3.6 %)      46 (6.2 %)      47 (6.5 %)
        Total: 1190.2%
Initial condition solution time: CPU = 2.708 ms, elapsed = 2.7101 ms.
Intrinsic tran analysis time:    CPU = 487.715 ms, elapsed = 489.3 ms.
Total time required for tran analysis `tran': CPU = 492.263 ms, elapsed = 494.401 ms, util. = 99.6%.
Time accumulated: CPU = 2.82493 s, elapsed = 3.48838 s.
Peak resident memory used = 213 Mbytes.


Notice from spectre during transient analysis `tran', during Monte Carlo analysis `mc1'.
    34 warnings suppressed.

finalTimeOP: writing operating point information to rawfile.

Opening the PSF file ../psf/mc1_separate/043/finalTimeOP.info ...
modelParameter: writing model parameter values to rawfile.

Opening the PSF file ../psf/mc1_separate/043/modelParameter.info ...
element: writing instance parameter values to rawfile.

Opening the PSF file ../psf/mc1_separate/043/element.info ...
outputParameter: writing output parameter values to rawfile.

Opening the PSF file ../psf/mc1_separate/043/outputParameter.info ...
designParamVals: writing netlist parameters to rawfile.

Opening the PSFASCII file ../psf/mc1_separate/043/designParamVals.info ...
primitives: writing primitives to rawfile.

Opening the PSFASCII file ../psf/mc1_separate/043/primitives.info.primitives ...
subckts: writing subcircuits to rawfile.

Opening the PSFASCII file ../psf/mc1_separate/043/subckts.info.subckts ...
    mc1: iteration = 43            (30 %), step = 1              (10 %)
44  40.00% 

*****************************************************************************************
* 
* INFO: AMS_processOption = C35B4C3
* 
* INFO: Valid Modules  PIP VG5 HIRES
* 
*****************************************************************************************


******************
DC Analysis `dcOp'
******************

Opening the PSF file ../psf/mc1_separate/044/dcOp.dc ...
Important parameter values:
    reltol = 100e-06
    abstol(V) = 1 uV
    abstol(I) = 1 pA
    temp = 27 C
    tnom = 27 C
    tempeffects = all
    gmindc = 1 pS
    rabsshort = 1 mOhm

Notice from spectre during DC analysis `dcOp', during Monte Carlo analysis `mc1'.
    Bad pivoting is found during DC analysis. Option dc_pivot_check=yes is recommended for possible improvement of convergence.


Maximum value achieved for any signal of each quantity: 
V: V(net2) = 3.3 V
I: I(V0:p) = 6.39 uA
Maximum value of each quantity, excluding Verilog-A modules or dangling current sources:
V: V(vout_filt) = 1.6 V
I: I(V0:p) = 6.39 uA

Warning from spectre during check, during DC analysis `dcOp', during Monte Carlo analysis `mc1'.
    WARNING (CMI-2943): Parameter checks have been ignored because the valid value for parameter 'trise' could not be found in 'C1'.
    WARNING (CMI-2943): Parameter checks have been ignored because the valid value for parameter 'trise' could not be found in 'I0.R2.CM'.
    WARNING (CMI-2943): Parameter checks have been ignored because the valid value for parameter 'trise' could not be found in 'I0.R2.CS1'.
    WARNING (CMI-2943): Parameter checks have been ignored because the valid value for parameter 'trise' could not be found in 'I0.R2.CS0'.
    WARNING (CMI-2943): Parameter checks have been ignored because the valid value for parameter 'trise' could not be found in 'I0.C8<3>.C1'.
        Further occurrences of this warning will be suppressed.

Convergence achieved in 18 iterations.
DC simulation time: CPU = 5.646 ms, elapsed = 6.83284 ms.
Total time required for dc analysis `dcOp': CPU = 6.114 ms, elapsed = 7.29895 ms, util. = 83.8%.
Time accumulated: CPU = 2.87272 s, elapsed = 3.54838 s.
Peak resident memory used = 213 Mbytes.


Notice from spectre during Monte Carlo analysis `mc1'.
    34 warnings suppressed.

dcOpInfo: writing operating point information to rawfile.

Opening the PSF file ../psf/mc1_separate/044/dcOpInfo.info ...

************************************************
Transient Analysis `tran': time = (0 s -> 40 ms)
************************************************

Opening the PSF file ../psf/mc1_separate/044/tran.tran.tran ...

Notice from spectre during IC analysis, during transient analysis `tran', during Monte Carlo analysis `mc1'.
    Bad pivoting is found during DC analysis. Option dc_pivot_check=yes is recommended for possible improvement of convergence.
Warning from spectre during check, during IC analysis, during transient analysis `tran', during Monte Carlo analysis `mc1'.
    WARNING (CMI-2943): Parameter checks have been ignored because the valid value for parameter 'trise' could not be found in 'C1'.
    WARNING (CMI-2943): Parameter checks have been ignored because the valid value for parameter 'trise' could not be found in 'I0.R2.CM'.
    WARNING (CMI-2943): Parameter checks have been ignored because the valid value for parameter 'trise' could not be found in 'I0.R2.CS1'.
    WARNING (CMI-2943): Parameter checks have been ignored because the valid value for parameter 'trise' could not be found in 'I0.R2.CS0'.
    WARNING (CMI-2943): Parameter checks have been ignored because the valid value for parameter 'trise' could not be found in 'I0.C8<3>.C1'.
        Further occurrences of this warning will be suppressed.

Convergence achieved in 18 iterations.
DC simulation time: CPU = 2.555 ms, elapsed = 2.55585 ms.
Important parameter values:
    start = 0 s
    outputstart = 0 s
    stop = 40 ms
    step = 40 us
    maxstep = 400 us
    ic = all
    useprevic = no
    skipdc = no
    reltol = 10e-06
    abstol(V) = 1 uV
    abstol(I) = 1 pA
    temp = 27 C
    tnom = 27 C
    tempeffects = all
    errpreset = conservative
    method = gear2only
    lteratio = 10
    relref = alllocal
    cmin = 0 F
    gmin = 1 pS
    rabsshort = 1 mOhm


Notice from spectre during transient analysis `tran', during Monte Carlo analysis `mc1'.
    Multithreading is disabled due to the size of the design being too small.


Output and IC/nodeset summary:
                 save   8       (current)
                 save   83      (voltage)

    tran: time = 1.02 ms     (2.55 %), step = 48.51 us     (121 m%)
    tran: time = 3.034 ms    (7.59 %), step = 47.45 us     (119 m%)
    tran: time = 5.001 ms    (12.5 %), step = 50 us        (125 m%)
    tran: time = 7.015 ms    (17.5 %), step = 49.01 us     (123 m%)
    tran: time = 9.028 ms    (22.6 %), step = 47.85 us     (120 m%)
    tran: time = 11.04 ms    (27.6 %), step = 46.94 us     (117 m%)
    tran: time = 13.01 ms    (32.5 %), step = 49.54 us     (124 m%)
    tran: time = 15.02 ms    (37.6 %), step = 48.3 us      (121 m%)
    tran: time = 17.04 ms    (42.6 %), step = 47.29 us     (118 m%)
    tran: time = 19 ms       (47.5 %), step = 50 us        (125 m%)
    tran: time = 21.02 ms    (52.5 %), step = 48.79 us     (122 m%)
    tran: time = 23.03 ms    (57.6 %), step = 47.67 us     (119 m%)
    tran: time = 25.04 ms    (62.6 %), step = 46.8 us      (117 m%)
    tran: time = 27.01 ms    (67.5 %), step = 49.31 us     (123 m%)
    tran: time = 29.02 ms    (72.6 %), step = 48.11 us     (120 m%)
    tran: time = 31.04 ms    (77.6 %), step = 47.13 us     (118 m%)
    tran: time = 33.01 ms    (82.5 %), step = 49.88 us     (125 m%)
    tran: time = 35.02 ms    (87.5 %), step = 48.58 us     (121 m%)
    tran: time = 37.03 ms    (92.6 %), step = 47.5 us      (119 m%)
    tran: time = 39 ms       (97.5 %), step = 50 us        (125 m%)
Number of accepted tran steps =             851

Maximum value achieved for any signal of each quantity: 
V: V(net2) = 3.3 V
I: I(V0:p) = 6.391 uA
Maximum value of each quantity, excluding Verilog-A modules or dangling current sources:
V: V(vout_filt) = 1.614 V
I: I(V0:p) = 6.391 uA

~~~~~~~~~~~~~~~~~~~~~~~~~~~~~~~~~
Post-Transient Simulation Summary
~~~~~~~~~~~~~~~~~~~~~~~~~~~~~~~~~
   -   To further speed up simulation, consider
          add ++aps on command line
   -   Non-default settings that could significantly slow down simulation
          errpreset = conservative, default moderate
          reltol = 10e-06, default 100e-06 (conservative)
~~~~~~~~~~~~~~~~~~~~~~~~~~~~~~~~~


During simulation, the CPU load for active processors is :
         0 (35.4 %)      1 (17.5 %)      2 (4.4 %)       3 (34.4 %)
         4 (7.1 %)       5 (7.4 %)       6 (99.7 %)      7 (37.9 %)
         8 (6.1 %)       9 (5.1 %)      10 (4.1 %)      11 (5.6 %)
        12 (13.2 %)     13 (2.8 %)      14 (12.5 %)     15 (7.9 %)
        16 (15.6 %)     17 (6.6 %)      18 (62.9 %)     19 (100.0 %)
        20 (29.6 %)     21 (4.8 %)      22 (16.6 %)     23 (17.0 %)
        24 (100.0 %)    25 (13.2 %)     26 (33.0 %)     27 (2.0 %)
        28 (15.4 %)     29 (100.0 %)    30 (4.8 %)      31 (42.1 %)
        32 (3.8 %)      33 (12.5 %)     34 (67.3 %)     35 (6.8 %)
        36 (26.4 %)     37 (9.4 %)      38 (79.9 %)     39 (7.4 %)
        40 (100.0 %)    41 (7.7 %)      42 (14.5 %)     43 (4.4 %)
        44 (3.1 %)      45 (4.3 %)      46 (7.8 %)      47 (7.7 %)
        Total: 1227.7%
Initial condition solution time: CPU = 2.587 ms, elapsed = 2.59018 ms.
Intrinsic tran analysis time:    CPU = 488.046 ms, elapsed = 489.512 ms.
Total time required for tran analysis `tran': CPU = 492.517 ms, elapsed = 494.569 ms, util. = 99.6%.
Time accumulated: CPU = 3.37231 s, elapsed = 4.05266 s.
Peak resident memory used = 213 Mbytes.


Notice from spectre during transient analysis `tran', during Monte Carlo analysis `mc1'.
    34 warnings suppressed.

finalTimeOP: writing operating point information to rawfile.

Opening the PSF file ../psf/mc1_separate/044/finalTimeOP.info ...
modelParameter: writing model parameter values to rawfile.

Opening the PSF file ../psf/mc1_separate/044/modelParameter.info ...
element: writing instance parameter values to rawfile.

Opening the PSF file ../psf/mc1_separate/044/element.info ...
outputParameter: writing output parameter values to rawfile.

Opening the PSF file ../psf/mc1_separate/044/outputParameter.info ...
designParamVals: writing netlist parameters to rawfile.

Opening the PSFASCII file ../psf/mc1_separate/044/designParamVals.info ...
primitives: writing primitives to rawfile.

Opening the PSFASCII file ../psf/mc1_separate/044/primitives.info.primitives ...
subckts: writing subcircuits to rawfile.

Opening the PSFASCII file ../psf/mc1_separate/044/subckts.info.subckts ...
    mc1: iteration = 44            (40 %), step = 1              (10 %)
45  50.00% 

*****************************************************************************************
* 
* INFO: AMS_processOption = C35B4C3
* 
* INFO: Valid Modules  PIP VG5 HIRES
* 
*****************************************************************************************


******************
DC Analysis `dcOp'
******************

Opening the PSF file ../psf/mc1_separate/045/dcOp.dc ...
Important parameter values:
    reltol = 100e-06
    abstol(V) = 1 uV
    abstol(I) = 1 pA
    temp = 27 C
    tnom = 27 C
    tempeffects = all
    gmindc = 1 pS
    rabsshort = 1 mOhm

Notice from spectre during DC analysis `dcOp', during Monte Carlo analysis `mc1'.
    Bad pivoting is found during DC analysis. Option dc_pivot_check=yes is recommended for possible improvement of convergence.


Maximum value achieved for any signal of each quantity: 
V: V(net2) = 3.3 V
I: I(V0:p) = 6.517 uA
Maximum value of each quantity, excluding Verilog-A modules or dangling current sources:
V: V(vout_filt) = 1.6 V
I: I(V0:p) = 6.517 uA

Warning from spectre during check, during DC analysis `dcOp', during Monte Carlo analysis `mc1'.
    WARNING (CMI-2943): Parameter checks have been ignored because the valid value for parameter 'trise' could not be found in 'C1'.
    WARNING (CMI-2943): Parameter checks have been ignored because the valid value for parameter 'trise' could not be found in 'I0.R2.CM'.
    WARNING (CMI-2943): Parameter checks have been ignored because the valid value for parameter 'trise' could not be found in 'I0.R2.CS1'.
    WARNING (CMI-2943): Parameter checks have been ignored because the valid value for parameter 'trise' could not be found in 'I0.R2.CS0'.
    WARNING (CMI-2943): Parameter checks have been ignored because the valid value for parameter 'trise' could not be found in 'I0.C8<3>.C1'.
        Further occurrences of this warning will be suppressed.

Convergence achieved in 19 iterations.
DC simulation time: CPU = 5.706 ms, elapsed = 7.00116 ms.
Total time required for dc analysis `dcOp': CPU = 6.133 ms, elapsed = 7.42817 ms, util. = 82.6%.
Time accumulated: CPU = 3.42335 s, elapsed = 4.11671 s.
Peak resident memory used = 213 Mbytes.


Notice from spectre during Monte Carlo analysis `mc1'.
    34 warnings suppressed.

dcOpInfo: writing operating point information to rawfile.

Opening the PSF file ../psf/mc1_separate/045/dcOpInfo.info ...

************************************************
Transient Analysis `tran': time = (0 s -> 40 ms)
************************************************

Opening the PSF file ../psf/mc1_separate/045/tran.tran.tran ...

Notice from spectre during IC analysis, during transient analysis `tran', during Monte Carlo analysis `mc1'.
    Bad pivoting is found during DC analysis. Option dc_pivot_check=yes is recommended for possible improvement of convergence.
Warning from spectre during check, during IC analysis, during transient analysis `tran', during Monte Carlo analysis `mc1'.
    WARNING (CMI-2943): Parameter checks have been ignored because the valid value for parameter 'trise' could not be found in 'C1'.
    WARNING (CMI-2943): Parameter checks have been ignored because the valid value for parameter 'trise' could not be found in 'I0.R2.CM'.
    WARNING (CMI-2943): Parameter checks have been ignored because the valid value for parameter 'trise' could not be found in 'I0.R2.CS1'.
    WARNING (CMI-2943): Parameter checks have been ignored because the valid value for parameter 'trise' could not be found in 'I0.R2.CS0'.
    WARNING (CMI-2943): Parameter checks have been ignored because the valid value for parameter 'trise' could not be found in 'I0.C8<3>.C1'.
        Further occurrences of this warning will be suppressed.

Convergence achieved in 19 iterations.
DC simulation time: CPU = 2.678 ms, elapsed = 2.68006 ms.
Important parameter values:
    start = 0 s
    outputstart = 0 s
    stop = 40 ms
    step = 40 us
    maxstep = 400 us
    ic = all
    useprevic = no
    skipdc = no
    reltol = 10e-06
    abstol(V) = 1 uV
    abstol(I) = 1 pA
    temp = 27 C
    tnom = 27 C
    tempeffects = all
    errpreset = conservative
    method = gear2only
    lteratio = 10
    relref = alllocal
    cmin = 0 F
    gmin = 1 pS
    rabsshort = 1 mOhm


Notice from spectre during transient analysis `tran', during Monte Carlo analysis `mc1'.
    Multithreading is disabled due to the size of the design being too small.


Output and IC/nodeset summary:
                 save   8       (current)
                 save   83      (voltage)

    tran: time = 1.022 ms    (2.56 %), step = 48.32 us     (121 m%)
    tran: time = 3.036 ms    (7.59 %), step = 47.31 us     (118 m%)
    tran: time = 5.003 ms    (12.5 %), step = 50 us        (125 m%)
    tran: time = 7.016 ms    (17.5 %), step = 48.84 us     (122 m%)
    tran: time = 9.03 ms     (22.6 %), step = 47.71 us     (119 m%)
    tran: time = 11.04 ms    (27.6 %), step = 46.84 us     (117 m%)
    tran: time = 13.01 ms    (32.5 %), step = 49.38 us     (123 m%)
    tran: time = 15.02 ms    (37.6 %), step = 48.18 us     (120 m%)
    tran: time = 17.04 ms    (42.6 %), step = 47.19 us     (118 m%)
    tran: time = 19 ms       (47.5 %), step = 49.99 us     (125 m%)
    tran: time = 21.02 ms    (52.5 %), step = 48.68 us     (122 m%)
    tran: time = 23.03 ms    (57.6 %), step = 47.58 us     (119 m%)
    tran: time = 25.05 ms    (62.6 %), step = 46.74 us     (117 m%)
    tran: time = 27.01 ms    (67.5 %), step = 49.22 us     (123 m%)
    tran: time = 29.03 ms    (72.6 %), step = 48.04 us     (120 m%)
    tran: time = 31.04 ms    (77.6 %), step = 47.09 us     (118 m%)
    tran: time = 33.01 ms    (82.5 %), step = 49.81 us     (125 m%)
    tran: time = 35.02 ms    (87.5 %), step = 48.53 us     (121 m%)
    tran: time = 37.03 ms    (92.6 %), step = 47.47 us     (119 m%)
    tran: time = 39 ms       (97.5 %), step = 50 us        (125 m%)
Number of accepted tran steps =             851

Maximum value achieved for any signal of each quantity: 
V: V(net2) = 3.3 V
I: I(V0:p) = 6.517 uA
Maximum value of each quantity, excluding Verilog-A modules or dangling current sources:
V: V(vout_filt) = 1.614 V
I: I(V0:p) = 6.517 uA

~~~~~~~~~~~~~~~~~~~~~~~~~~~~~~~~~
Post-Transient Simulation Summary
~~~~~~~~~~~~~~~~~~~~~~~~~~~~~~~~~
   -   To further speed up simulation, consider
          add ++aps on command line
   -   Non-default settings that could significantly slow down simulation
          errpreset = conservative, default moderate
          reltol = 10e-06, default 100e-06 (conservative)
~~~~~~~~~~~~~~~~~~~~~~~~~~~~~~~~~


During simulation, the CPU load for active processors is :
         0 (31.1 %)      1 (15.6 %)      2 (4.3 %)       3 (33.7 %)
         4 (6.2 %)       5 (6.9 %)       6 (99.8 %)      7 (45.3 %)
         8 (5.4 %)       9 (5.1 %)      10 (4.2 %)      11 (5.4 %)
        12 (22.0 %)     13 (5.2 %)      14 (13.3 %)     15 (8.3 %)
        16 (14.8 %)     17 (6.2 %)      18 (56.8 %)     19 (95.8 %)
        20 (37.3 %)     21 (4.3 %)      22 (16.5 %)     23 (15.0 %)
        24 (100.0 %)    25 (11.8 %)     26 (40.7 %)     27 (2.2 %)
        28 (13.7 %)     29 (100.0 %)    30 (7.5 %)      31 (45.5 %)
        32 (3.6 %)      33 (11.4 %)     34 (71.0 %)     35 (6.4 %)
        36 (24.7 %)     37 (11.1 %)     38 (70.7 %)     39 (18.8 %)
        40 (100.0 %)    41 (7.0 %)      42 (12.7 %)     43 (4.7 %)
        44 (3.2 %)      45 (4.5 %)      46 (10.8 %)     47 (14.9 %)
        Total: 1255.2%
Initial condition solution time: CPU = 2.712 ms, elapsed = 2.71392 ms.
Intrinsic tran analysis time:    CPU = 486.255 ms, elapsed = 487.922 ms.
Total time required for tran analysis `tran': CPU = 490.845 ms, elapsed = 493.217 ms, util. = 99.5%.
Time accumulated: CPU = 3.92095 s, elapsed = 4.61916 s.
Peak resident memory used = 213 Mbytes.


Notice from spectre during transient analysis `tran', during Monte Carlo analysis `mc1'.
    34 warnings suppressed.

finalTimeOP: writing operating point information to rawfile.

Opening the PSF file ../psf/mc1_separate/045/finalTimeOP.info ...
modelParameter: writing model parameter values to rawfile.

Opening the PSF file ../psf/mc1_separate/045/modelParameter.info ...
element: writing instance parameter values to rawfile.

Opening the PSF file ../psf/mc1_separate/045/element.info ...
outputParameter: writing output parameter values to rawfile.

Opening the PSF file ../psf/mc1_separate/045/outputParameter.info ...
designParamVals: writing netlist parameters to rawfile.

Opening the PSFASCII file ../psf/mc1_separate/045/designParamVals.info ...
primitives: writing primitives to rawfile.

Opening the PSFASCII file ../psf/mc1_separate/045/primitives.info.primitives ...
subckts: writing subcircuits to rawfile.

Opening the PSFASCII file ../psf/mc1_separate/045/subckts.info.subckts ...
    mc1: iteration = 45            (50 %), step = 1              (10 %)
46  60.00% 

*****************************************************************************************
* 
* INFO: AMS_processOption = C35B4C3
* 
* INFO: Valid Modules  PIP VG5 HIRES
* 
*****************************************************************************************


******************
DC Analysis `dcOp'
******************

Opening the PSF file ../psf/mc1_separate/046/dcOp.dc ...
Important parameter values:
    reltol = 100e-06
    abstol(V) = 1 uV
    abstol(I) = 1 pA
    temp = 27 C
    tnom = 27 C
    tempeffects = all
    gmindc = 1 pS
    rabsshort = 1 mOhm

Notice from spectre during DC analysis `dcOp', during Monte Carlo analysis `mc1'.
    Bad pivoting is found during DC analysis. Option dc_pivot_check=yes is recommended for possible improvement of convergence.


Maximum value achieved for any signal of each quantity: 
V: V(net2) = 3.3 V
I: I(V0:p) = 6.586 uA
Maximum value of each quantity, excluding Verilog-A modules or dangling current sources:
V: V(vout_filt) = 1.6 V
I: I(V0:p) = 6.586 uA

Warning from spectre during check, during DC analysis `dcOp', during Monte Carlo analysis `mc1'.
    WARNING (CMI-2943): Parameter checks have been ignored because the valid value for parameter 'trise' could not be found in 'C1'.
    WARNING (CMI-2943): Parameter checks have been ignored because the valid value for parameter 'trise' could not be found in 'I0.R2.CM'.
    WARNING (CMI-2943): Parameter checks have been ignored because the valid value for parameter 'trise' could not be found in 'I0.R2.CS1'.
    WARNING (CMI-2943): Parameter checks have been ignored because the valid value for parameter 'trise' could not be found in 'I0.R2.CS0'.
    WARNING (CMI-2943): Parameter checks have been ignored because the valid value for parameter 'trise' could not be found in 'I0.C8<3>.C1'.
        Further occurrences of this warning will be suppressed.

Convergence achieved in 19 iterations.
DC simulation time: CPU = 5.549 ms, elapsed = 8.05187 ms.
Total time required for dc analysis `dcOp': CPU = 5.966 ms, elapsed = 8.46887 ms, util. = 70.4%.
Time accumulated: CPU = 3.96772 s, elapsed = 4.6821 s.
Peak resident memory used = 213 Mbytes.


Notice from spectre during Monte Carlo analysis `mc1'.
    34 warnings suppressed.

dcOpInfo: writing operating point information to rawfile.

Opening the PSF file ../psf/mc1_separate/046/dcOpInfo.info ...

************************************************
Transient Analysis `tran': time = (0 s -> 40 ms)
************************************************

Opening the PSF file ../psf/mc1_separate/046/tran.tran.tran ...

Notice from spectre during IC analysis, during transient analysis `tran', during Monte Carlo analysis `mc1'.
    Bad pivoting is found during DC analysis. Option dc_pivot_check=yes is recommended for possible improvement of convergence.
Warning from spectre during check, during IC analysis, during transient analysis `tran', during Monte Carlo analysis `mc1'.
    WARNING (CMI-2943): Parameter checks have been ignored because the valid value for parameter 'trise' could not be found in 'C1'.
    WARNING (CMI-2943): Parameter checks have been ignored because the valid value for parameter 'trise' could not be found in 'I0.R2.CM'.
    WARNING (CMI-2943): Parameter checks have been ignored because the valid value for parameter 'trise' could not be found in 'I0.R2.CS1'.
    WARNING (CMI-2943): Parameter checks have been ignored because the valid value for parameter 'trise' could not be found in 'I0.R2.CS0'.
    WARNING (CMI-2943): Parameter checks have been ignored because the valid value for parameter 'trise' could not be found in 'I0.C8<3>.C1'.
        Further occurrences of this warning will be suppressed.

Convergence achieved in 19 iterations.
DC simulation time: CPU = 2.731 ms, elapsed = 2.73299 ms.
Important parameter values:
    start = 0 s
    outputstart = 0 s
    stop = 40 ms
    step = 40 us
    maxstep = 400 us
    ic = all
    useprevic = no
    skipdc = no
    reltol = 10e-06
    abstol(V) = 1 uV
    abstol(I) = 1 pA
    temp = 27 C
    tnom = 27 C
    tempeffects = all
    errpreset = conservative
    method = gear2only
    lteratio = 10
    relref = alllocal
    cmin = 0 F
    gmin = 1 pS
    rabsshort = 1 mOhm


Notice from spectre during transient analysis `tran', during Monte Carlo analysis `mc1'.
    Multithreading is disabled due to the size of the design being too small.


Output and IC/nodeset summary:
                 save   8       (current)
                 save   83      (voltage)

    tran: time = 1.019 ms    (2.55 %), step = 48.65 us     (122 m%)
    tran: time = 3.032 ms    (7.58 %), step = 47.57 us     (119 m%)
    tran: time = 5.046 ms    (12.6 %), step = 46.73 us     (117 m%)
    tran: time = 7.013 ms    (17.5 %), step = 49.2 us      (123 m%)
    tran: time = 9.026 ms    (22.6 %), step = 48.03 us     (120 m%)
    tran: time = 11.04 ms    (27.6 %), step = 47.08 us     (118 m%)
    tran: time = 13.01 ms    (32.5 %), step = 49.81 us     (125 m%)
    tran: time = 15.02 ms    (37.5 %), step = 48.53 us     (121 m%)
    tran: time = 17.03 ms    (42.6 %), step = 47.47 us     (119 m%)
    tran: time = 19 ms       (47.5 %), step = 50 us        (125 m%)
    tran: time = 21.01 ms    (52.5 %), step = 49.07 us     (123 m%)
    tran: time = 23.03 ms    (57.6 %), step = 47.92 us     (120 m%)
    tran: time = 25.04 ms    (62.6 %), step = 47 us        (117 m%)
    tran: time = 27.01 ms    (67.5 %), step = 49.66 us     (124 m%)
    tran: time = 29.02 ms    (72.6 %), step = 48.41 us     (121 m%)
    tran: time = 31.04 ms    (77.6 %), step = 47.38 us     (118 m%)
    tran: time = 33 ms       (82.5 %), step = 50 us        (125 m%)
    tran: time = 35.02 ms    (87.5 %), step = 48.94 us     (122 m%)
    tran: time = 37.03 ms    (92.6 %), step = 47.8 us      (119 m%)
    tran: time = 39.04 ms    (97.6 %), step = 46.91 us     (117 m%)
Number of accepted tran steps =             851

Maximum value achieved for any signal of each quantity: 
V: V(net2) = 3.3 V
I: I(V0:p) = 6.586 uA
Maximum value of each quantity, excluding Verilog-A modules or dangling current sources:
V: V(vout_filt) = 1.614 V
I: I(V0:p) = 6.586 uA

~~~~~~~~~~~~~~~~~~~~~~~~~~~~~~~~~
Post-Transient Simulation Summary
~~~~~~~~~~~~~~~~~~~~~~~~~~~~~~~~~
   -   To further speed up simulation, consider
          add ++aps on command line
   -   Non-default settings that could significantly slow down simulation
          errpreset = conservative, default moderate
          reltol = 10e-06, default 100e-06 (conservative)
~~~~~~~~~~~~~~~~~~~~~~~~~~~~~~~~~


During simulation, the CPU load for active processors is :
         0 (28.1 %)      1 (14.4 %)      2 (4.4 %)       3 (33.9 %)
         4 (6.0 %)       5 (6.3 %)       6 (99.8 %)      7 (51.0 %)
         8 (5.0 %)       9 (4.7 %)      10 (4.0 %)      11 (5.4 %)
        12 (19.9 %)     13 (5.2 %)      14 (13.9 %)     15 (12.1 %)
        16 (13.7 %)     17 (5.7 %)      18 (61.5 %)     19 (92.5 %)
        20 (39.8 %)     21 (4.6 %)      22 (15.2 %)     23 (13.7 %)
        24 (100.0 %)    25 (10.9 %)     26 (47.4 %)     27 (2.0 %)
        28 (12.3 %)     29 (100.0 %)    30 (17.9 %)     31 (41.5 %)
        32 (4.2 %)      33 (10.3 %)     34 (73.8 %)     35 (5.9 %)
        36 (22.7 %)     37 (12.2 %)     38 (63.4 %)     39 (27.8 %)
        40 (100.0 %)    41 (6.4 %)      42 (11.7 %)     43 (4.4 %)
        44 (3.2 %)      45 (4.8 %)      46 (11.4 %)     47 (23.1 %)
        Total: 1277.9%
Initial condition solution time: CPU = 2.77 ms, elapsed = 2.77185 ms.
Intrinsic tran analysis time:    CPU = 487.417 ms, elapsed = 490.471 ms.
Total time required for tran analysis `tran': CPU = 491.927 ms, elapsed = 495.827 ms, util. = 99.2%.
Time accumulated: CPU = 4.46667 s, elapsed = 5.18804 s.
Peak resident memory used = 213 Mbytes.


Notice from spectre during transient analysis `tran', during Monte Carlo analysis `mc1'.
    34 warnings suppressed.

finalTimeOP: writing operating point information to rawfile.

Opening the PSF file ../psf/mc1_separate/046/finalTimeOP.info ...
modelParameter: writing model parameter values to rawfile.

Opening the PSF file ../psf/mc1_separate/046/modelParameter.info ...
element: writing instance parameter values to rawfile.

Opening the PSF file ../psf/mc1_separate/046/element.info ...
outputParameter: writing output parameter values to rawfile.

Opening the PSF file ../psf/mc1_separate/046/outputParameter.info ...
designParamVals: writing netlist parameters to rawfile.

Opening the PSFASCII file ../psf/mc1_separate/046/designParamVals.info ...
primitives: writing primitives to rawfile.

Opening the PSFASCII file ../psf/mc1_separate/046/primitives.info.primitives ...
subckts: writing subcircuits to rawfile.

Opening the PSFASCII file ../psf/mc1_separate/046/subckts.info.subckts ...
    mc1: iteration = 46            (60 %), step = 1              (10 %)
47  70.00% 

*****************************************************************************************
* 
* INFO: AMS_processOption = C35B4C3
* 
* INFO: Valid Modules  PIP VG5 HIRES
* 
*****************************************************************************************


******************
DC Analysis `dcOp'
******************

Opening the PSF file ../psf/mc1_separate/047/dcOp.dc ...
Important parameter values:
    reltol = 100e-06
    abstol(V) = 1 uV
    abstol(I) = 1 pA
    temp = 27 C
    tnom = 27 C
    tempeffects = all
    gmindc = 1 pS
    rabsshort = 1 mOhm

Notice from spectre during DC analysis `dcOp', during Monte Carlo analysis `mc1'.
    Bad pivoting is found during DC analysis. Option dc_pivot_check=yes is recommended for possible improvement of convergence.


Maximum value achieved for any signal of each quantity: 
V: V(net2) = 3.3 V
I: I(V0:p) = 6.492 uA
Maximum value of each quantity, excluding Verilog-A modules or dangling current sources:
V: V(vout_filt) = 1.6 V
I: I(V0:p) = 6.492 uA

Warning from spectre during check, during DC analysis `dcOp', during Monte Carlo analysis `mc1'.
    WARNING (CMI-2943): Parameter checks have been ignored because the valid value for parameter 'trise' could not be found in 'C1'.
    WARNING (CMI-2943): Parameter checks have been ignored because the valid value for parameter 'trise' could not be found in 'I0.R2.CM'.
    WARNING (CMI-2943): Parameter checks have been ignored because the valid value for parameter 'trise' could not be found in 'I0.R2.CS1'.
    WARNING (CMI-2943): Parameter checks have been ignored because the valid value for parameter 'trise' could not be found in 'I0.R2.CS0'.
    WARNING (CMI-2943): Parameter checks have been ignored because the valid value for parameter 'trise' could not be found in 'I0.C8<3>.C1'.
        Further occurrences of this warning will be suppressed.

Convergence achieved in 17 iterations.
DC simulation time: CPU = 5.793 ms, elapsed = 7.47609 ms.
Total time required for dc analysis `dcOp': CPU = 6.247 ms, elapsed = 7.92909 ms, util. = 78.8%.
Time accumulated: CPU = 4.51467 s, elapsed = 5.2495 s.
Peak resident memory used = 213 Mbytes.


Notice from spectre during Monte Carlo analysis `mc1'.
    34 warnings suppressed.

dcOpInfo: writing operating point information to rawfile.

Opening the PSF file ../psf/mc1_separate/047/dcOpInfo.info ...

************************************************
Transient Analysis `tran': time = (0 s -> 40 ms)
************************************************

Opening the PSF file ../psf/mc1_separate/047/tran.tran.tran ...

Notice from spectre during IC analysis, during transient analysis `tran', during Monte Carlo analysis `mc1'.
    Bad pivoting is found during DC analysis. Option dc_pivot_check=yes is recommended for possible improvement of convergence.
Warning from spectre during check, during IC analysis, during transient analysis `tran', during Monte Carlo analysis `mc1'.
    WARNING (CMI-2943): Parameter checks have been ignored because the valid value for parameter 'trise' could not be found in 'C1'.
    WARNING (CMI-2943): Parameter checks have been ignored because the valid value for parameter 'trise' could not be found in 'I0.R2.CM'.
    WARNING (CMI-2943): Parameter checks have been ignored because the valid value for parameter 'trise' could not be found in 'I0.R2.CS1'.
    WARNING (CMI-2943): Parameter checks have been ignored because the valid value for parameter 'trise' could not be found in 'I0.R2.CS0'.
    WARNING (CMI-2943): Parameter checks have been ignored because the valid value for parameter 'trise' could not be found in 'I0.C8<3>.C1'.
        Further occurrences of this warning will be suppressed.

Convergence achieved in 17 iterations.
DC simulation time: CPU = 2.612 ms, elapsed = 2.61307 ms.
Important parameter values:
    start = 0 s
    outputstart = 0 s
    stop = 40 ms
    step = 40 us
    maxstep = 400 us
    ic = all
    useprevic = no
    skipdc = no
    reltol = 10e-06
    abstol(V) = 1 uV
    abstol(I) = 1 pA
    temp = 27 C
    tnom = 27 C
    tempeffects = all
    errpreset = conservative
    method = gear2only
    lteratio = 10
    relref = alllocal
    cmin = 0 F
    gmin = 1 pS
    rabsshort = 1 mOhm


Notice from spectre during transient analysis `tran', during Monte Carlo analysis `mc1'.
    Multithreading is disabled due to the size of the design being too small.


Output and IC/nodeset summary:
                 save   8       (current)
                 save   83      (voltage)

    tran: time = 1.023 ms    (2.56 %), step = 48.22 us     (121 m%)
    tran: time = 3.037 ms    (7.59 %), step = 47.23 us     (118 m%)
    tran: time = 5.004 ms    (12.5 %), step = 50 us        (125 m%)
    tran: time = 7.018 ms    (17.5 %), step = 48.71 us     (122 m%)
    tran: time = 9.032 ms    (22.6 %), step = 47.61 us     (119 m%)
    tran: time = 11.05 ms    (27.6 %), step = 46.76 us     (117 m%)
    tran: time = 13.01 ms    (32.5 %), step = 49.24 us     (123 m%)
    tran: time = 15.03 ms    (37.6 %), step = 48.05 us     (120 m%)
    tran: time = 17.04 ms    (42.6 %), step = 47.09 us     (118 m%)
    tran: time = 19.01 ms    (47.5 %), step = 49.82 us     (125 m%)
    tran: time = 21.02 ms    (52.5 %), step = 48.53 us     (121 m%)
    tran: time = 23.03 ms    (57.6 %), step = 47.47 us     (119 m%)
[...]
Initial condition solution time: CPU = 2.742 ms, elapsed = 2.74396 ms.
Intrinsic tran analysis time:    CPU = 489.133 ms, elapsed = 491.571 ms.
Total time required for tran analysis `tran': CPU = 493.901 ms, elapsed = 497.05 ms, util. = 99.4%.
Time accumulated: CPU = 5.56665 s, elapsed = 6.32752 s.
Peak resident memory used = 213 Mbytes.


Notice from spectre during transient analysis `tran', during Monte Carlo analysis `mc1'.
    34 warnings suppressed.

finalTimeOP: writing operating point information to rawfile.

Opening the PSF file ../psf/mc1_separate/048/finalTimeOP.info ...
modelParameter: writing model parameter values to rawfile.

Opening the PSF file ../psf/mc1_separate/048/modelParameter.info ...
element: writing instance parameter values to rawfile.

Opening the PSF file ../psf/mc1_separate/048/element.info ...
outputParameter: writing output parameter values to rawfile.

Opening the PSF file ../psf/mc1_separate/048/outputParameter.info ...
designParamVals: writing netlist parameters to rawfile.

Opening the PSFASCII file ../psf/mc1_separate/048/designParamVals.info ...
primitives: writing primitives to rawfile.

Opening the PSFASCII file ../psf/mc1_separate/048/primitives.info.primitives ...
subckts: writing subcircuits to rawfile.

Opening the PSFASCII file ../psf/mc1_separate/048/subckts.info.subckts ...
    mc1: iteration = 48            (80 %), step = 1              (10 %)
49  90.00% 

*****************************************************************************************
* 
* INFO: AMS_processOption = C35B4C3
* 
* INFO: Valid Modules  PIP VG5 HIRES
* 
*****************************************************************************************


******************
DC Analysis `dcOp'
******************

Opening the PSF file ../psf/mc1_separate/049/dcOp.dc ...
Important parameter values:
    reltol = 100e-06
    abstol(V) = 1 uV
    abstol(I) = 1 pA
    temp = 27 C
    tnom = 27 C
    tempeffects = all
    gmindc = 1 pS
    rabsshort = 1 mOhm

Notice from spectre during DC analysis `dcOp', during Monte Carlo analysis `mc1'.
    Bad pivoting is found during DC analysis. Option dc_pivot_check=yes is recommended for possible improvement of convergence.


Maximum value achieved for any signal of each quantity: 
V: V(net2) = 3.3 V
I: I(V0:p) = 6.441 uA
Maximum value of each quantity, excluding Verilog-A modules or dangling current sources:
V: V(vout_filt) = 1.6 V
I: I(V0:p) = 6.441 uA

Warning from spectre during check, during DC analysis `dcOp', during Monte Carlo analysis `mc1'.
    WARNING (CMI-2943): Parameter checks have been ignored because the valid value for parameter 'trise' could not be found in 'C1'.
    WARNING (CMI-2943): Parameter checks have been ignored because the valid value for parameter 'trise' could not be found in 'I0.R2.CM'.
    WARNING (CMI-2943): Parameter checks have been ignored because the valid value for parameter 'trise' could not be found in 'I0.R2.CS1'.
    WARNING (CMI-2943): Parameter checks have been ignored because the valid value for parameter 'trise' could not be found in 'I0.R2.CS0'.
    WARNING (CMI-2943): Parameter checks have been ignored because the valid value for parameter 'trise' could not be found in 'I0.C8<3>.C1'.
        Further occurrences of this warning will be suppressed.

Convergence achieved in 20 iterations.
DC simulation time: CPU = 6.095 ms, elapsed = 7.58505 ms.
Total time required for dc analysis `dcOp': CPU = 6.572 ms, elapsed = 8.05998 ms, util. = 81.5%.
Time accumulated: CPU = 5.61498 s, elapsed = 6.38721 s.
Peak resident memory used = 213 Mbytes.


Notice from spectre during Monte Carlo analysis `mc1'.
    34 warnings suppressed.

dcOpInfo: writing operating point information to rawfile.

Opening the PSF file ../psf/mc1_separate/049/dcOpInfo.info ...

************************************************
Transient Analysis `tran': time = (0 s -> 40 ms)
************************************************

Opening the PSF file ../psf/mc1_separate/049/tran.tran.tran ...

Notice from spectre during IC analysis, during transient analysis `tran', during Monte Carlo analysis `mc1'.
    Bad pivoting is found during DC analysis. Option dc_pivot_check=yes is recommended for possible improvement of convergence.
Warning from spectre during check, during IC analysis, during transient analysis `tran', during Monte Carlo analysis `mc1'.
    WARNING (CMI-2943): Parameter checks have been ignored because the valid value for parameter 'trise' could not be found in 'C1'.
    WARNING (CMI-2943): Parameter checks have been ignored because the valid value for parameter 'trise' could not be found in 'I0.R2.CM'.
    WARNING (CMI-2943): Parameter checks have been ignored because the valid value for parameter 'trise' could not be found in 'I0.R2.CS1'.
    WARNING (CMI-2943): Parameter checks have been ignored because the valid value for parameter 'trise' could not be found in 'I0.R2.CS0'.
    WARNING (CMI-2943): Parameter checks have been ignored because the valid value for parameter 'trise' could not be found in 'I0.C8<3>.C1'.
        Further occurrences of this warning will be suppressed.

Convergence achieved in 20 iterations.
DC simulation time: CPU = 3.408 ms, elapsed = 3.40891 ms.
Important parameter values:
    start = 0 s
    outputstart = 0 s
    stop = 40 ms
    step = 40 us
    maxstep = 400 us
    ic = all
    useprevic = no
    skipdc = no
    reltol = 10e-06
    abstol(V) = 1 uV
    abstol(I) = 1 pA
    temp = 27 C
    tnom = 27 C
    tempeffects = all
    errpreset = conservative
    method = gear2only
    lteratio = 10
    relref = alllocal
    cmin = 0 F
    gmin = 1 pS
    rabsshort = 1 mOhm


Notice from spectre during transient analysis `tran', during Monte Carlo analysis `mc1'.
    Multithreading is disabled due to the size of the design being too small.


Output and IC/nodeset summary:
                 save   8       (current)
                 save   83      (voltage)

    tran: time = 1.019 ms    (2.55 %), step = 48.59 us     (121 m%)
    tran: time = 3.033 ms    (7.58 %), step = 47.51 us     (119 m%)
    tran: time = 5 ms        (12.5 %), step = 50 us        (125 m%)
    tran: time = 7.014 ms    (17.5 %), step = 49.09 us     (123 m%)
    tran: time = 9.027 ms    (22.6 %), step = 47.92 us     (120 m%)
    tran: time = 11.04 ms    (27.6 %), step = 46.99 us     (117 m%)
    tran: time = 13.01 ms    (32.5 %), step = 49.64 us     (124 m%)
    tran: time = 15.02 ms    (37.6 %), step = 48.38 us     (121 m%)
    tran: time = 17.04 ms    (42.6 %), step = 47.34 us     (118 m%)
    tran: time = 19 ms       (47.5 %), step = 50 us        (125 m%)
    tran: time = 21.02 ms    (52.5 %), step = 48.86 us     (122 m%)
    tran: time = 23.03 ms    (57.6 %), step = 47.73 us     (119 m%)
    tran: time = 25.04 ms    (62.6 %), step = 46.85 us     (117 m%)
    tran: time = 27.01 ms    (67.5 %), step = 49.38 us     (123 m%)
    tran: time = 29.02 ms    (72.6 %), step = 48.17 us     (120 m%)
    tran: time = 31.04 ms    (77.6 %), step = 47.18 us     (118 m%)
    tran: time = 33.01 ms    (82.5 %), step = 49.96 us     (125 m%)
    tran: time = 35.02 ms    (87.5 %), step = 48.64 us     (122 m%)
    tran: time = 37.03 ms    (92.6 %), step = 47.55 us     (119 m%)
    tran: time = 39.05 ms    (97.6 %), step = 46.71 us     (117 m%)
Number of accepted tran steps =             851

Maximum value achieved for any signal of each quantity: 
V: V(net2) = 3.3 V
I: I(V0:p) = 6.442 uA
Maximum value of each quantity, excluding Verilog-A modules or dangling current sources:
V: V(vout_filt) = 1.614 V
I: I(V0:p) = 6.442 uA

~~~~~~~~~~~~~~~~~~~~~~~~~~~~~~~~~
Post-Transient Simulation Summary
~~~~~~~~~~~~~~~~~~~~~~~~~~~~~~~~~
   -   To further speed up simulation, consider
          add ++aps on command line
   -   Non-default settings that could significantly slow down simulation
          errpreset = conservative, default moderate
          reltol = 10e-06, default 100e-06 (conservative)
~~~~~~~~~~~~~~~~~~~~~~~~~~~~~~~~~


During simulation, the CPU load for active processors is :
         0 (22.9 %)      1 (11.7 %)      2 (4.5 %)       3 (26.4 %)
         4 (6.4 %)       5 (5.9 %)       6 (99.7 %)      7 (53.3 %)
         8 (19.6 %)      9 (4.6 %)      10 (13.2 %)     11 (5.5 %)
        12 (16.7 %)     13 (5.4 %)      14 (11.9 %)     15 (26.0 %)
        16 (15.8 %)     17 (5.1 %)      18 (54.5 %)     19 (94.4 %)
        20 (46.2 %)     21 (5.1 %)      22 (12.7 %)     23 (18.8 %)
        24 (99.9 %)     25 (30.7 %)     26 (37.8 %)     27 (1.8 %)
        28 (9.6 %)      29 (100.0 %)    30 (37.8 %)     31 (31.9 %)
        32 (3.9 %)      33 (8.5 %)      34 (79.6 %)     35 (6.0 %)
        36 (18.7 %)     37 (12.0 %)     38 (51.9 %)     39 (45.0 %)
        40 (100.0 %)    41 (12.2 %)     42 (10.4 %)     43 (6.0 %)
        44 (3.0 %)      45 (4.8 %)      46 (33.1 %)     47 (20.4 %)
        Total: 1351.1%
Initial condition solution time: CPU = 3.459 ms, elapsed = 3.46088 ms.
Intrinsic tran analysis time:    CPU = 488.292 ms, elapsed = 490.141 ms.
Total time required for tran analysis `tran': CPU = 494.377 ms, elapsed = 496.853 ms, util. = 99.5%.
Time accumulated: CPU = 6.11884 s, elapsed = 6.89595 s.
Peak resident memory used = 213 Mbytes.


Notice from spectre during transient analysis `tran', during Monte Carlo analysis `mc1'.
    34 warnings suppressed.

finalTimeOP: writing operating point information to rawfile.

Opening the PSF file ../psf/mc1_separate/049/finalTimeOP.info ...
modelParameter: writing model parameter values to rawfile.

Opening the PSF file ../psf/mc1_separate/049/modelParameter.info ...
element: writing instance parameter values to rawfile.

Opening the PSF file ../psf/mc1_separate/049/element.info ...
outputParameter: writing output parameter values to rawfile.

Opening the PSF file ../psf/mc1_separate/049/outputParameter.info ...
designParamVals: writing netlist parameters to rawfile.

Opening the PSFASCII file ../psf/mc1_separate/049/designParamVals.info ...
primitives: writing primitives to rawfile.

Opening the PSFASCII file ../psf/mc1_separate/049/primitives.info.primitives ...
subckts: writing subcircuits to rawfile.

Opening the PSFASCII file ../psf/mc1_separate/049/subckts.info.subckts ...
    mc1: iteration = 49            (90 %), step = 1              (10 %)
50 100.00% 

*****************************************************************************************
* 
* INFO: AMS_processOption = C35B4C3
* 
* INFO: Valid Modules  PIP VG5 HIRES
* 
*****************************************************************************************


******************
DC Analysis `dcOp'
******************

Opening the PSF file ../psf/mc1_separate/050/dcOp.dc ...
Important parameter values:
    reltol = 100e-06
    abstol(V) = 1 uV
    abstol(I) = 1 pA
    temp = 27 C
    tnom = 27 C
    tempeffects = all
    gmindc = 1 pS
    rabsshort = 1 mOhm

Notice from spectre during DC analysis `dcOp', during Monte Carlo analysis `mc1'.
    Bad pivoting is found during DC analysis. Option dc_pivot_check=yes is recommended for possible improvement of convergence.


Maximum value achieved for any signal of each quantity: 
V: V(net2) = 3.3 V
I: I(V0:p) = 6.426 uA
Maximum value of each quantity, excluding Verilog-A modules or dangling current sources:
V: V(vout_filt) = 1.6 V
I: I(V0:p) = 6.426 uA

Warning from spectre during check, during DC analysis `dcOp', during Monte Carlo analysis `mc1'.
    WARNING (CMI-2943): Parameter checks have been ignored because the valid value for parameter 'trise' could not be found in 'C1'.
    WARNING (CMI-2943): Parameter checks have been ignored because the valid value for parameter 'trise' could not be found in 'I0.R2.CM'.
    WARNING (CMI-2943): Parameter checks have been ignored because the valid value for parameter 'trise' could not be found in 'I0.R2.CS1'.
    WARNING (CMI-2943): Parameter checks have been ignored because the valid value for parameter 'trise' could not be found in 'I0.R2.CS0'.
    WARNING (CMI-2943): Parameter checks have been ignored because the valid value for parameter 'trise' could not be found in 'I0.C8<3>.C1'.
        Further occurrences of this warning will be suppressed.

Convergence achieved in 18 iterations.
DC simulation time: CPU = 6.014 ms, elapsed = 7.71189 ms.
Total time required for dc analysis `dcOp': CPU = 6.615 ms, elapsed = 8.31199 ms, util. = 79.6%.
Time accumulated: CPU = 6.17313 s, elapsed = 6.96378 s.
Peak resident memory used = 213 Mbytes.


Notice from spectre during Monte Carlo analysis `mc1'.
    34 warnings suppressed.

dcOpInfo: writing operating point information to rawfile.

Opening the PSF file ../psf/mc1_separate/050/dcOpInfo.info ...

************************************************
Transient Analysis `tran': time = (0 s -> 40 ms)
************************************************

Opening the PSF file ../psf/mc1_separate/050/tran.tran.tran ...

Notice from spectre during IC analysis, during transient analysis `tran', during Monte Carlo analysis `mc1'.
    Bad pivoting is found during DC analysis. Option dc_pivot_check=yes is recommended for possible improvement of convergence.
Warning from spectre during check, during IC analysis, during transient analysis `tran', during Monte Carlo analysis `mc1'.
    WARNING (CMI-2943): Parameter checks have been ignored because the valid value for parameter 'trise' could not be found in 'C1'.
    WARNING (CMI-2943): Parameter checks have been ignored because the valid value for parameter 'trise' could not be found in 'I0.R2.CM'.
    WARNING (CMI-2943): Parameter checks have been ignored because the valid value for parameter 'trise' could not be found in 'I0.R2.CS1'.
    WARNING (CMI-2943): Parameter checks have been ignored because the valid value for parameter 'trise' could not be found in 'I0.R2.CS0'.
    WARNING (CMI-2943): Parameter checks have been ignored because the valid value for parameter 'trise' could not be found in 'I0.C8<3>.C1'.
        Further occurrences of this warning will be suppressed.

Convergence achieved in 18 iterations.
DC simulation time: CPU = 2.969 ms, elapsed = 2.96903 ms.
Important parameter values:
    start = 0 s
    outputstart = 0 s
    stop = 40 ms
    step = 40 us
    maxstep = 400 us
    ic = all
    useprevic = no
    skipdc = no
    reltol = 10e-06
    abstol(V) = 1 uV
    abstol(I) = 1 pA
    temp = 27 C
    tnom = 27 C
    tempeffects = all
    errpreset = conservative
    method = gear2only
    lteratio = 10
    relref = alllocal
    cmin = 0 F
    gmin = 1 pS
    rabsshort = 1 mOhm


Notice from spectre during transient analysis `tran', during Monte Carlo analysis `mc1'.
    Multithreading is disabled due to the size of the design being too small.


Output and IC/nodeset summary:
                 save   8       (current)
                 save   83      (voltage)

    tran: time = 1.021 ms    (2.55 %), step = 48.42 us     (121 m%)
    tran: time = 3.035 ms    (7.59 %), step = 47.38 us     (118 m%)
    tran: time = 5.002 ms    (12.5 %), step = 50 us        (125 m%)
    tran: time = 7.015 ms    (17.5 %), step = 48.93 us     (122 m%)
    tran: time = 9.029 ms    (22.6 %), step = 47.78 us     (119 m%)
    tran: time = 11.04 ms    (27.6 %), step = 46.89 us     (117 m%)
    tran: time = 13.01 ms    (32.5 %), step = 49.47 us     (124 m%)
    tran: time = 15.02 ms    (37.6 %), step = 48.25 us     (121 m%)
    tran: time = 17.04 ms    (42.6 %), step = 47.24 us     (118 m%)
    tran: time = 19 ms       (47.5 %), step = 50 us        (125 m%)
    tran: time = 21.02 ms    (52.5 %), step = 48.74 us     (122 m%)
    tran: time = 23.03 ms    (57.6 %), step = 47.63 us     (119 m%)
    tran: time = 25.04 ms    (62.6 %), step = 46.77 us     (117 m%)
    tran: time = 27.01 ms    (67.5 %), step = 49.26 us     (123 m%)
    tran: time = 29.03 ms    (72.6 %), step = 48.08 us     (120 m%)
    tran: time = 31.04 ms    (77.6 %), step = 47.11 us     (118 m%)
    tran: time = 33.01 ms    (82.5 %), step = 49.85 us     (125 m%)
    tran: time = 35.02 ms    (87.5 %), step = 48.56 us     (121 m%)
    tran: time = 37.03 ms    (92.6 %), step = 47.49 us     (119 m%)
    tran: time = 39 ms       (97.5 %), step = 50 us        (125 m%)
Number of accepted tran steps =             851

Maximum value achieved for any signal of each quantity: 
V: V(net2) = 3.3 V
I: I(V0:p) = 6.426 uA
Maximum value of each quantity, excluding Verilog-A modules or dangling current sources:
V: V(vout_filt) = 1.614 V
I: I(V0:p) = 6.426 uA

~~~~~~~~~~~~~~~~~~~~~~~~~~~~~~~~~
Post-Transient Simulation Summary
~~~~~~~~~~~~~~~~~~~~~~~~~~~~~~~~~
   -   To further speed up simulation, consider
          add ++aps on command line
   -   Non-default settings that could significantly slow down simulation
          errpreset = conservative, default moderate
          reltol = 10e-06, default 100e-06 (conservative)
~~~~~~~~~~~~~~~~~~~~~~~~~~~~~~~~~


During simulation, the CPU load for active processors is :
         0 (21.8 %)      1 (12.3 %)      2 (5.2 %)       3 (25.0 %)
         4 (7.0 %)       5 (6.3 %)       6 (99.7 %)      7 (55.9 %)
         8 (18.6 %)      9 (4.7 %)      10 (12.8 %)     11 (12.1 %)
        12 (16.3 %)     13 (5.5 %)      14 (12.7 %)     15 (31.2 %)
        16 (15.4 %)     17 (4.7 %)      18 (50.7 %)     19 (94.8 %)
        20 (49.5 %)     21 (5.5 %)      22 (12.1 %)     23 (17.5 %)
        24 (99.9 %)     25 (30.5 %)     26 (36.3 %)     27 (1.7 %)
        28 (9.0 %)      29 (100.0 %)    30 (35.9 %)     31 (29.4 %)
        32 (4.4 %)      33 (8.2 %)      34 (75.2 %)     35 (11.7 %)
        36 (21.5 %)     37 (12.3 %)     38 (48.5 %)     39 (49.2 %)
        40 (100.0 %)    41 (12.2 %)     42 (9.9 %)      43 (5.8 %)
        44 (3.3 %)      45 (4.5 %)      46 (34.1 %)     47 (19.5 %)
        Total: 1360.3%
Initial condition solution time: CPU = 3.016 ms, elapsed = 3.01814 ms.
Intrinsic tran analysis time:    CPU = 482.444 ms, elapsed = 484.018 ms.
Total time required for tran analysis `tran': CPU = 487.672 ms, elapsed = 489.949 ms, util. = 99.5%.
Time accumulated: CPU = 6.66841 s, elapsed = 7.46393 s.
Peak resident memory used = 213 Mbytes.


Notice from spectre during transient analysis `tran', during Monte Carlo analysis `mc1'.
    34 warnings suppressed.

finalTimeOP: writing operating point information to rawfile.

Opening the PSF file ../psf/mc1_separate/050/finalTimeOP.info ...
modelParameter: writing model parameter values to rawfile.

Opening the PSF file ../psf/mc1_separate/050/modelParameter.info ...
element: writing instance parameter values to rawfile.

Opening the PSF file ../psf/mc1_separate/050/element.info ...
outputParameter: writing output parameter values to rawfile.

Opening the PSF file ../psf/mc1_separate/050/outputParameter.info ...
designParamVals: writing netlist parameters to rawfile.

Opening the PSFASCII file ../psf/mc1_separate/050/designParamVals.info ...
primitives: writing primitives to rawfile.

Opening the PSFASCII file ../psf/mc1_separate/050/primitives.info.primitives ...
subckts: writing subcircuits to rawfile.

Opening the PSFASCII file ../psf/mc1_separate/050/subckts.info.subckts ...
    mc1: iteration = 50           (100 %), step = 1              (10 %)
Total time required for montecarlo analysis `mc1': CPU = 6.20879 s, elapsed = 6.42705 s, util. = 96.6%.
Time accumulated: CPU = 6.69581 s, elapsed = 7.50404 s.
Peak resident memory used = 213 Mbytes.

Licensing Information:
Lic Summary:
[10:46:06.075539] Cdslmd servers:3000@lic08.ug.kth.se:29000@lic06.ug.kth.se
[10:46:06.599864] Feature usage summary:
[10:46:06.599865] Virtuoso_Multi_mode_Simulation


Aggregate audit (10:46:06 AM, Thur Apr 16, 2026):
Time used: CPU = 6.71 s, elapsed = 7.52 s, util. = 89.2%.
Time spent in licensing: elapsed = 51.2 ms.
Peak memory used = 214 Mbytes.
Simulation started at: 10:45:59 AM, Thur Apr 16, 2026, ended at: 10:46:06 AM, Thur Apr 16, 2026, with elapsed time (wall clock): 7.52 s.
spectre completes with 0 errors, 127 warnings, and 62 notices.
