
Spectre (R) Circuit Simulator
Version 24.1.0.288.isr5 64bit -- 3 Apr 2025
Copyright (C) 1989-2025 Cadence Design Systems, Inc. All rights reserved worldwide. Cadence and Spectre are registered trademarks of Cadence Design Systems, Inc. All others are the property of their respective holders.

Includes RSA BSAFE(R) Cryptographic or Security Protocol Software from RSA Security, Inc.

User: davidevi   Host: il2244vt26_davidevi   HostID: 11AC2C00   PID: 1028395
Memory  available: 3.0223 TB  physical: 3.2467 TB
Linux   : Rocky Linux release 8.10 (Green Obsidian)
CPU Type: Intel(R) Xeon(R) CPU E7-8857 v2 @ 3.00GHz
        Socket: Processors [Frequency]
        0:       0 [3393.6],  1 [3393.6],  2 [1200.0],  3 [3385.6],  4 [1200.0]
                 5 [3392.9],  6 [3393.7],  7 [1200.0],  8 [3393.7],  9 [1200.0]
                10 [3393.7], 11 [3393.7]
        1:      12 [3600.0], 13 [3600.0], 14 [3399.9], 15 [3600.0], 16 [1200.0]
                17 [3399.4], 18 [3398.9], 19 [3399.9], 20 [3399.9], 21 [3399.5]
                22 [3399.9], 23 [3600.0]
        2:      24 [3399.9], 25 [3600.0], 26 [3399.9], 27 [3600.0], 28 [3399.9]
                29 [3399.9], 30 [3600.0], 31 [3399.9], 32 [3399.9], 33 [3600.0]
                34 [3399.9], 35 [3600.0]
        3:      36 [3600.0], 37 [1200.0], 38 [2600.0], 39 [3600.0], 40 [3600.0]
                41 [1200.0], 42 [3392.4], 43 [3393.3], 44 [3393.7], 45 [3393.3]
                46 [3393.4], 47 [1200.0]
        
System load averages (1min, 5min, 15min) : 30.9 %, 26.6 %, 25.3 %
HPC is enabled


Simulating `input.scs' on il2244vt26_davidevi at 4:53:32 PM, Wed Apr 15, 2026 (process id: 1028395).
Current working directory: /home/davidevi/Desktop/myproject/Sim/VGA/VGA_1_wakeup_tb/adexl/results/data/MonteCarlo.0/17/wakeup/groupRunDataDir/netlist
Command line:
    /opt/tools/cadence/installs/SPECTRE241/tools/bin/spectre -64  \
        input.scs +escchars +log ../psf/spectre.out -format psfbin  \
        +rtsf -raw ../psf +aps +mt +lqtimeout 900 -maxw 5 -maxn 5  \
        +param /opt/pdk/ams/410/spectre/ams_range.lmts -env ade  \
        -ahdllibdir  \
        /home/davidevi/Desktop/myproject/Sim/VGA/VGA_1_wakeup_tb/adexl/results/data/MonteCarlo.0/sharedData/Job458/ahdl/input.ahdlSimDB  \
        +logstatus  \
        +adespetkn=0001089D13A302B663E41FB550AF0DF415A679A322D5069144BF588C12F604E07EF416DC01A319B562BB63D362A824E145A317CF30F6369162C15F9A55884F9262E279D15D9175FF34986BDD0AF002BA50FD7FD707E002A700AC1C821CFF42E20EAF79D118F874D3349879D118F874D33498100EDA73B6585D4700003648

Simulation Id: P2jL8GVYBBv1p1Vz
Licensing Information:
[16:53:32.121762] Configured Lic search path (24.01-s002): 3000@lic08.ug.kth.se:29000@lic06.ug.kth.se

Licensing Information:
[16:53:32.282041] Periodic Lic check successful

Loading /opt/tools/cadence/installs/SPECTRE241/tools.lnx86/cmi/lib/64bit/5.0/libinfineon_sh.so ...
Loading /opt/tools/cadence/installs/SPECTRE241/tools.lnx86/cmi/lib/64bit/5.0/libphilips_I_sh.so ...
Loading /opt/tools/cadence/installs/SPECTRE241/tools.lnx86/cmi/lib/64bit/5.0/libphilips_sh.so ...
Loading /opt/tools/cadence/installs/SPECTRE241/tools.lnx86/cmi/lib/64bit/5.0/libsparam_sh.so ...
Loading /opt/tools/cadence/installs/SPECTRE241/tools.lnx86/cmi/lib/64bit/5.0/libstmodels_sh.so ...

Warning from spectre.
    WARNING (SPECTRE-691): This CPU processor does not support x86 advanced vector extensions instructions. This may affect math operations and slow down the simulation.

Reading file:  /home/davidevi/Desktop/myproject/Sim/VGA/VGA_1_wakeup_tb/adexl/results/data/MonteCarlo.0/17/wakeup/groupRunDataDir/netlist/input.scs
Reading file:  /opt/pdk/ams/410/spectre/ams_range.lmts

Warning from spectre during read of parameter soft limits file `/opt/pdk/ams/410/spectre/ams_range.lmts', during circuit read-in.
    WARNING (SPECTRE-8360): line 1511: `ac' is an undefined primitive device.
    WARNING (SPECTRE-8360): line 1512: `ac' is an undefined primitive device.
    WARNING (SPECTRE-8360): line 1513: `ac' is an undefined primitive device.
    WARNING (SPECTRE-8360): line 1514: `ac' is an undefined primitive device.
    WARNING (SPECTRE-8360): line 1515: `ac' is an undefined primitive device.
        Further occurrences of this warning will be suppressed.

Reading file:  /opt/tools/cadence/installs/SPECTRE241/tools.lnx86/spectre/etc/configs/spectre.cfg
Reading file:  /opt/pdk/ams/410/spectre/c35/soac/soac.scs
Reading file:  /opt/pdk/ams/410/spectre/c35/soac/processOption.scs
Reading file:  /opt/pdk/ams/410/spectre/c35/soac/process.scs
Reading file:  /opt/pdk/ams/410/spectre/c35/soac/soac.va

Warning from spectre during AHDL read-in.
    WARNING (VACOMP-2435): The environment variable CDS_AHDLCMI_ENABLE is no longer supported. Therefore, the simulator will use the default compiled C code flow.

Reading link:  /opt/tools/cadence/installs/SPECTRE241/tools.lnx86/spectre/etc/ahdl/constants.h
Reading file:  /opt/tools/cadence/installs/SPECTRE241/tools.lnx86/spectre/etc/ahdl/constants.vams
Reading link:  /opt/tools/cadence/installs/SPECTRE241/tools.lnx86/spectre/etc/ahdl/discipline.h
Reading file:  /opt/tools/cadence/installs/SPECTRE241/tools.lnx86/spectre/etc/ahdl/disciplines.vams
Reading file:  /opt/pdk/ams/410/spectre/c35/processOption/C35B4C3.scs
Reading file:  /opt/pdk/ams/410/spectre/c35/soac/cmos53.scs
Reading file:  /opt/pdk/ams/410/spectre/c35/soac/res.scs
Reading file:  /opt/pdk/ams/410/spectre/c35/soac/cap.scs
Reading file:  /opt/pdk/ams/410/spectre/c35/soac/bip.scs
Reading file:  /opt/pdk/ams/410/spectre/c35/soac/ind.scs
Reading file:  /opt/pdk/ams/410/spectre/c35/soac/esddiode.scs
Time for NDB Parsing: CPU = 160.543 ms, elapsed = 302.052 ms.
Time accumulated: CPU = 339.736 ms, elapsed = 302.054 ms.
Peak resident memory used = 175 Mbytes.

Existing shared object for module modn_ahdl is up to date.
Installed compiled interface for modn_ahdl.
Existing shared object for module modp_ahdl is up to date.
Installed compiled interface for modp_ahdl.
Existing shared object for module cpoly_ahdl is up to date.
Installed compiled interface for cpoly_ahdl.
Existing shared object for module rpolyh_ahdl is up to date.
Installed compiled interface for rpolyh_ahdl.
Existing shared object for module bsource_19b458 is up to date.
Installed compiled interface for bsource_19b458.
Time for Elaboration: CPU = 53.504 ms, elapsed = 56.483 ms.
Time accumulated: CPU = 393.362 ms, elapsed = 358.659 ms.
Peak resident memory used = 188 Mbytes.


Notice from spectre during hierarchy flattening.
    The value 'psf' specified for the 'checklimitdest' option will no longer be supported in future releases. Use 'spectre -h' to see other recommended values for the 'checklimitdest' option.


*****************************************************************************************
* 
* INFO: AMS_processOption = C35B4C3
* 
* INFO: Valid Modules  PIP VG5 HIRES
* 
*****************************************************************************************


Notice from spectre during hierarchy flattening.
    V8: `period' has the unusually large value of 100 s.


Time for EDB Visiting: CPU = 8.437 ms, elapsed = 8.43811 ms.
Time accumulated: CPU = 402.011 ms, elapsed = 367.307 ms.
Peak resident memory used = 191 Mbytes.

Loading /opt/tools/cadence/installs/SPECTRE241/tools.lnx86/mdl/lib/64bit/libSpectreEH_sh.so ...

Warning from spectre during initial setup.
    WARNING (SPECTRE-16460): SOAC_cvarm_vspsub:Specified subcircuit master `cvarm' was not found.
    WARNING (SPECTRE-16462): SOAC_cvarm_vspsub:Error in specification of subcircuit master. Assert is ignored.
    WARNING (SPECTRE-16460): SOAC_cvarm_vbs:Specified subcircuit master `cvarm' was not found.
    WARNING (SPECTRE-16462): SOAC_cvarm_vbs:Error in specification of subcircuit master. Assert is ignored.
    WARNING (SPECTRE-16460): SOAC_cvarm_vgb:Specified subcircuit master `cvarm' was not found.
    WARNING (SPECTRE-16462): SOAC_cvarm_vgb:Error in specification of subcircuit master. Assert is ignored.
    WARNING (SPECTRE-16460): SOAC_cvart_vspsub:Specified subcircuit master `cvart' was not found.
    WARNING (SPECTRE-16462): SOAC_cvart_vspsub:Error in specification of subcircuit master. Assert is ignored.
    WARNING (SPECTRE-16460): SOAC_cvart_vbs:Specified subcircuit master `cvart' was not found.
        Further occurrences of this warning will be suppressed.
    WARNING (SPECTRE-16462): SOAC_cvart_vbs:Error in specification of subcircuit master. Assert is ignored.
        Further occurrences of this warning will be suppressed.
Notice from spectre during topology check.
    Only one connection to the following 54 nodes:
        I0.MN6.psub!
        I0.MN5.psub!
        I0.MN4.psub!
        I0.MN3.psub!
        I0.MN2.psub!
        Further occurrences of this notice will be suppressed.
Notice from spectre during initial setup.
    Multithreading is disabled due to the size of the design being too small.


Netlist title:
        // Point Netlist Generated on: Apr 15 16:53:32 2026


Global user options:
         psfversion = 1.4.0
            vabstol = 1e-06
            iabstol = 1e-12
               temp = 85
           homotopy = 5
              limit = delta
         compatible = spice2
               gmin = 1e-12
             rforce = 1
           maxnotes = 5
           maxwarns = 5
             digits = 5
               cols = 80
             pivrel = 0.001
           sensfile = ../psf/sens.output
     checklimitdest = psf
     enable_pre_ver = yes
      ignorezerovar = yes
               save = allpub
             reltol = 0.0001
               tnom = 27
             scalem = 1
              scale = 1

Scoped user options:

Circuit inventory:
              nodes 88
            bsim3v3 35    
     bsource_19b458 2     
          capacitor 38    
         cpoly_ahdl 17    
            isource 1     
          modn_ahdl 19    
          modp_ahdl 16    
           resistor 1     
        rpolyh_ahdl 2     
            vsource 8     

Analysis and control statement inventory:
               info 7     
         montecarlo 1     
               tran 1     

Output statements:
             .probe 0     
           .measure 0     
               save 0     

Design checks inventory:
          paramtest 55    
             assert 175   


Notice from spectre during initial setup.
    APS enabled.
    1 notice suppressed.
    72 warnings suppressed.

Time for parsing: CPU = 16.378 ms, elapsed = 655.744 ms.
Time accumulated: CPU = 418.52 ms, elapsed = 1.02318 s.
Peak resident memory used = 198 Mbytes.

~~~~~~~~~~~~~~~~~~~~~~
Pre-Simulation Summary
~~~~~~~~~~~~~~~~~~~~~~
   -   (APS) Multi-threading. The recommended number of threads is 1, consider adding +mt=1 on command line.
~~~~~~~~~~~~~~~~~~~~~~

**************************************************
Monte Carlo Analysis `mc1': iteration = (1 -> 100)
**************************************************
Important parameter values:
    seed = 12345
    sampling = lds
    variations = all
    firstrun = 1
    numruns = 100
    nullmfactorcorrelation = no
    donominal = yes
    method = standard

**** Performing nominal run for `mc1'

Notice from spectre during transient analysis `tran', during Monte Carlo analysis `mc1'.
    No checklimit analysis defined for asserts. A default checklimit analysis 'SpectreChecklimitAnal' has been created with all asserts enabled.


***********************************************
Transient Analysis `tran': time = (0 s -> 50 s)
***********************************************

Warning from spectre during check, during IC analysis, during transient analysis `tran', during Monte Carlo analysis `mc1'.
    WARNING (CMI-2943): Parameter checks have been ignored because the valid value for parameter 'trise' could not be found in 'C1'.
    WARNING (CMI-2943): Parameter checks have been ignored because the valid value for parameter 'trise' could not be found in 'I0.R2.CM'.
    WARNING (CMI-2943): Parameter checks have been ignored because the valid value for parameter 'trise' could not be found in 'I0.R2.CS1'.
    WARNING (CMI-2943): Parameter checks have been ignored because the valid value for parameter 'trise' could not be found in 'I0.R2.CS0'.
    WARNING (CMI-2943): Parameter checks have been ignored because the valid value for parameter 'trise' could not be found in 'I0.C3.C1'.
        Further occurrences of this warning will be suppressed.

Convergence achieved in 12 iterations.
DC simulation time: CPU = 2.716 ms, elapsed = 2.71702 ms.

Opening the PSF file ../psf/nom/tran.tran.tran ...
Important parameter values:
    start = 0 s
    outputstart = 0 s
    stop = 50 s
    step = 50 ms
    maxstep = 500 ms
    ic = all
    useprevic = no
    skipdc = no
    reltol = 10e-06
    abstol(V) = 1 uV
    abstol(I) = 1 pA
    temp = 85 C
    tnom = 27 C
    tempeffects = all
    errpreset = conservative
    method = gear2only
    lteratio = 10
    relref = alllocal
    cmin = 0 F
    gmin = 1 pS
    rabsshort = 1 mOhm


Notice from spectre during transient analysis `tran', during Monte Carlo analysis `mc1'.
    Multithreading is disabled due to the size of the design being too small.


Output and IC/nodeset summary:
                 save   8       (current)
                 save   87      (voltage)

    tran: time = 1.301 s      (2.6 %), step = 500 ms          (1 %)
    tran: time = 3.801 s      (7.6 %), step = 500 ms          (1 %)
    tran: time = 6.301 s     (12.6 %), step = 500 ms          (1 %)
    tran: time = 8.801 s     (17.6 %), step = 500 ms          (1 %)
    tran: time = 11.3 s      (22.6 %), step = 500 ms          (1 %)
    tran: time = 13.8 s      (27.6 %), step = 500 ms          (1 %)
    tran: time = 16.3 s      (32.6 %), step = 500 ms          (1 %)
    tran: time = 18.8 s      (37.6 %), step = 500 ms          (1 %)
    tran: time = 21.3 s      (42.6 %), step = 500 ms          (1 %)
    tran: time = 23.8 s      (47.6 %), step = 500 ms          (1 %)
    tran: time = 26.3 s      (52.6 %), step = 500 ms          (1 %)
    tran: time = 28.8 s      (57.6 %), step = 500 ms          (1 %)
    tran: time = 31.3 s      (62.6 %), step = 500 ms          (1 %)
    tran: time = 33.8 s      (67.6 %), step = 500 ms          (1 %)
    tran: time = 36.3 s      (72.6 %), step = 500 ms          (1 %)
    tran: time = 38.8 s      (77.6 %), step = 500 ms          (1 %)
    tran: time = 41.3 s      (82.6 %), step = 500 ms          (1 %)
    tran: time = 43.8 s      (87.6 %), step = 500 ms          (1 %)
    tran: time = 46.3 s      (92.6 %), step = 500 ms          (1 %)
    tran: time = 48.8 s      (97.6 %), step = 500 ms          (1 %)
Number of accepted tran steps =             682

Maximum value achieved for any signal of each quantity: 
V: V(S<0>) = 3.3 V
I: I(V8:p) = 7.633 uA
Maximum value of each quantity, excluding Verilog-A modules or dangling current sources:
V: V(vout_filt) = 3.242 V
I: I(V8:p) = 7.633 uA

~~~~~~~~~~~~~~~~~~~~~~~~~~~~~~~~~
Post-Transient Simulation Summary
~~~~~~~~~~~~~~~~~~~~~~~~~~~~~~~~~
   -   To further speed up simulation, consider
          add ++aps on command line
   -   Non-default settings that could significantly slow down simulation
          errpreset = conservative, default moderate
          reltol = 10e-06, default 100e-06 (conservative)
~~~~~~~~~~~~~~~~~~~~~~~~~~~~~~~~~


During simulation, the CPU load for active processors is :
         0 (100.0 %)     1 (68.1 %)      2 (32.8 %)      3 (27.9 %)
         4 (57.6 %)      5 (71.1 %)      6 (40.9 %)      7 (47.4 %)
         8 (100.0 %)     9 (36.6 %)     10 (71.1 %)     11 (100.0 %)
        12 (24.3 %)     13 (15.3 %)     14 (40.2 %)     15 (34.6 %)
        16 (8.3 %)      17 (10.9 %)     18 (41.9 %)     19 (96.2 %)
        20 (58.3 %)     21 (60.2 %)     22 (100.0 %)    23 (22.1 %)
        24 (91.0 %)     25 (20.8 %)     26 (53.4 %)     27 (33.1 %)
        28 (44.4 %)     29 (100.0 %)    30 (20.2 %)     31 (4.6 %)
        32 (15.0 %)     33 (14.4 %)     34 (100.0 %)    35 (6.0 %)
        36 (77.1 %)     37 (11.4 %)     38 (6.8 %)      39 (14.1 %)
        40 (10.5 %)     41 (8.3 %)      42 (52.6 %)     43 (21.6 %)
        44 (74.0 %)     45 (22.1 %)     46 (100.0 %)    47 (91.9 %)
        Total: 2259.1%
Initial condition solution time: CPU = 2.755 ms, elapsed = 2.75803 ms.
Intrinsic tran analysis time:    CPU = 365.927 ms, elapsed = 367.503 ms.
Total time required for tran analysis `tran': CPU = 443.794 ms, elapsed = 447.828 ms, util. = 99.1%.
Time accumulated: CPU = 885.676 ms, elapsed = 1.49562 s.
Peak resident memory used = 209 Mbytes.


Notice from spectre during transient analysis `tran', during Monte Carlo analysis `mc1'.
    34 warnings suppressed.

finalTimeOP: writing operating point information to rawfile.

Opening the PSF file ../psf/nom/finalTimeOP.info ...
modelParameter: writing model parameter values to rawfile.

Opening the PSF file ../psf/nom/modelParameter.info ...
element: writing instance parameter values to rawfile.

Opening the PSF file ../psf/nom/element.info ...
outputParameter: writing output parameter values to rawfile.

Opening the PSF file ../psf/nom/outputParameter.info ...
designParamVals: writing netlist parameters to rawfile.

Opening the PSFASCII file ../psf/nom/designParamVals.info ...
primitives: writing primitives to rawfile.

Opening the PSFASCII file ../psf/nom/primitives.info.primitives ...
subckts: writing subcircuits to rawfile.

Opening the PSFASCII file ../psf/nom/subckts.info.subckts ...
Opening iteration number and data-directory mapping file:  /home/davidevi/Desktop/myproject/Sim/VGA/VGA_1_wakeup_tb/adexl/results/data/MonteCarlo.0/17/wakeup/groupRunDataDir/netlist/../psf/mc1.mapping

Statistical parameters:
    Defined process parameters: 629
    Defined mismatch parameters (subckt based): 86
    Non-referenced mismatch parameters: 80
    Number of random variables: 718
    Gaussian truncation for process parameters: 4.00 sigma
    Gaussian truncation for mismatch parameters: 4.00 sigma


Opening the PSF file ../psf/mc1_tran.montecarlo ...

Opening the PSF file ../psf/mc1_finalTimeOP.montecarlo ...

Opening the PSF file ../psf/mc1_modelParameter.montecarlo ...

Opening the PSF file ../psf/mc1_element.montecarlo ...

Opening the PSF file ../psf/mc1_outputParameter.montecarlo ...

Opening the PSF file ../psf/mc1_designParamVals.montecarlo ...

Opening the PSF file ../psf/mc1_primitives.montecarlo ...

Opening the PSF file ../psf/mc1_subckts.montecarlo ...

**** Performing monte carlo loop for `mc1'

1   0.00% 

*****************************************************************************************
* 
* INFO: AMS_processOption = C35B4C3
* 
* INFO: Valid Modules  PIP VG5 HIRES
* 
*****************************************************************************************


Notice from spectre at iteration = 1 during Monte Carlo analysis `mc1'.
    V8: `period' has the unusually large value of 100 s.


***********************************************
Transient Analysis `tran': time = (0 s -> 50 s)
***********************************************

Opening the PSF file ../psf/mc1_separate/001/tran.tran.tran ...

Warning from spectre at iteration = 1 during check, during IC analysis, during transient analysis `tran', during Monte Carlo analysis `mc1'.
    WARNING (CMI-2943): Parameter checks have been ignored because the valid value for parameter 'trise' could not be found in 'C1'.
    WARNING (CMI-2943): Parameter checks have been ignored because the valid value for parameter 'trise' could not be found in 'I0.R2.CM'.
    WARNING (CMI-2943): Parameter checks have been ignored because the valid value for parameter 'trise' could not be found in 'I0.R2.CS1'.
    WARNING (CMI-2943): Parameter checks have been ignored because the valid value for parameter 'trise' could not be found in 'I0.R2.CS0'.
    WARNING (CMI-2943): Parameter checks have been ignored because the valid value for parameter 'trise' could not be found in 'I0.C3.C1'.
        Further occurrences of this warning will be suppressed.

Convergence achieved in 12 iterations.
DC simulation time: CPU = 2.409 ms, elapsed = 2.40993 ms.
Important parameter values:
    start = 0 s
    outputstart = 0 s
    stop = 50 s
    step = 50 ms
    maxstep = 500 ms
    ic = all
    useprevic = no
    skipdc = no
    reltol = 10e-06
    abstol(V) = 1 uV
    abstol(I) = 1 pA
    temp = 85 C
    tnom = 27 C
    tempeffects = all
    errpreset = conservative
    method = gear2only
    lteratio = 10
    relref = alllocal
    cmin = 0 F
    gmin = 1 pS
    rabsshort = 1 mOhm


Notice from spectre at iteration = 1 during transient analysis `tran', during Monte Carlo analysis `mc1'.
    Multithreading is disabled due to the size of the design being too small.


Output and IC/nodeset summary:
                 save   8       (current)
                 save   87      (voltage)

    tran: time = 1.368 s     (2.74 %), step = 497.1 ms     (994 m%)
    tran: time = 3.868 s     (7.74 %), step = 500 ms          (1 %)
    tran: time = 6.368 s     (12.7 %), step = 500 ms          (1 %)
    tran: time = 8.868 s     (17.7 %), step = 500 ms          (1 %)
    tran: time = 11.37 s     (22.7 %), step = 500 ms          (1 %)
    tran: time = 13.87 s     (27.7 %), step = 500 ms          (1 %)
    tran: time = 16.37 s     (32.7 %), step = 500 ms          (1 %)
    tran: time = 18.87 s     (37.7 %), step = 500 ms          (1 %)
    tran: time = 21.37 s     (42.7 %), step = 500 ms          (1 %)
    tran: time = 23.87 s     (47.7 %), step = 500 ms          (1 %)
    tran: time = 26.37 s     (52.7 %), step = 500 ms          (1 %)
    tran: time = 28.87 s     (57.7 %), step = 500 ms          (1 %)
    tran: time = 31.37 s     (62.7 %), step = 500 ms          (1 %)
    tran: time = 33.87 s     (67.7 %), step = 500 ms          (1 %)
    tran: time = 36.37 s     (72.7 %), step = 500 ms          (1 %)
    tran: time = 38.87 s     (77.7 %), step = 500 ms          (1 %)
    tran: time = 41.37 s     (82.7 %), step = 500 ms          (1 %)
    tran: time = 43.87 s     (87.7 %), step = 500 ms          (1 %)
    tran: time = 46.37 s     (92.7 %), step = 500 ms          (1 %)
    tran: time = 48.87 s     (97.7 %), step = 500 ms          (1 %)
Number of accepted tran steps =             685

Maximum value achieved for any signal of each quantity: 
V: V(S<0>) = 3.3 V
I: I(V8:p) = 7.519 uA
Maximum value of each quantity, excluding Verilog-A modules or dangling current sources:
V: V(vout_filt) = 3.266 V
I: I(V8:p) = 7.519 uA

~~~~~~~~~~~~~~~~~~~~~~~~~~~~~~~~~
Post-Transient Simulation Summary
~~~~~~~~~~~~~~~~~~~~~~~~~~~~~~~~~
   -   To further speed up simulation, consider
          add ++aps on command line
   -   Non-default settings that could significantly slow down simulation
          errpreset = conservative, default moderate
          reltol = 10e-06, default 100e-06 (conservative)
~~~~~~~~~~~~~~~~~~~~~~~~~~~~~~~~~


During simulation, the CPU load for active processors is :
         0 (100.0 %)     1 (77.5 %)      2 (28.4 %)      3 (24.0 %)
         4 (44.4 %)      5 (57.3 %)      6 (29.8 %)      7 (60.4 %)
         8 (100.0 %)     9 (32.3 %)     10 (54.0 %)     11 (100.0 %)
        12 (31.5 %)     13 (27.6 %)     14 (42.2 %)     15 (48.7 %)
        16 (31.4 %)     17 (10.4 %)     18 (38.1 %)     19 (87.3 %)
        20 (49.2 %)     21 (54.5 %)     22 (100.0 %)    23 (21.5 %)
        24 (67.0 %)     25 (44.3 %)     26 (39.5 %)     27 (25.1 %)
        28 (58.4 %)     29 (100.0 %)    30 (43.5 %)     31 (5.4 %)
        32 (15.5 %)     33 (11.8 %)     34 (100.0 %)    35 (6.9 %)
        36 (78.6 %)     37 (17.7 %)     38 (21.8 %)     39 (16.8 %)
        40 (10.5 %)     41 (15.1 %)     42 (66.3 %)     43 (17.0 %)
        44 (54.6 %)     45 (45.2 %)     46 (100.0 %)    47 (70.9 %)
        Total: 2282.6%
Initial condition solution time: CPU = 2.445 ms, elapsed = 2.44808 ms.
Intrinsic tran analysis time:    CPU = 376.281 ms, elapsed = 378.057 ms.
Total time required for tran analysis `tran': CPU = 381.441 ms, elapsed = 383.848 ms, util. = 99.4%.
Time accumulated: CPU = 1.33674 s, elapsed = 1.96207 s.
Peak resident memory used = 213 Mbytes.


Notice from spectre during transient analysis `tran', during Monte Carlo analysis `mc1'.
    34 warnings suppressed.

finalTimeOP: writing operating point information to rawfile.

Opening the PSF file ../psf/mc1_separate/001/finalTimeOP.info ...
modelParameter: writing model parameter values to rawfile.

Opening the PSF file ../psf/mc1_separate/001/modelParameter.info ...
element: writing instance parameter values to rawfile.

Opening the PSF file ../psf/mc1_separate/001/element.info ...
outputParameter: writing output parameter values to rawfile.

Opening the PSF file ../psf/mc1_separate/001/outputParameter.info ...
designParamVals: writing netlist parameters to rawfile.

Opening the PSFASCII file ../psf/mc1_separate/001/designParamVals.info ...
primitives: writing primitives to rawfile.

Opening the PSFASCII file ../psf/mc1_separate/001/primitives.info.primitives ...
subckts: writing subcircuits to rawfile.

Opening the PSFASCII file ../psf/mc1_separate/001/subckts.info.subckts ...
2   1.01% 

*****************************************************************************************
* 
* INFO: AMS_processOption = C35B4C3
* 
* INFO: Valid Modules  PIP VG5 HIRES
* 
*****************************************************************************************


Notice from spectre during Monte Carlo analysis `mc1'.
    V8: `period' has the unusually large value of 100 s.


***********************************************
Transient Analysis `tran': time = (0 s -> 50 s)
***********************************************

Opening the PSF file ../psf/mc1_separate/002/tran.tran.tran ...

Warning from spectre during check, during IC analysis, during transient analysis `tran', during Monte Carlo analysis `mc1'.
    WARNING (CMI-2943): Parameter checks have been ignored because the valid value for parameter 'trise' could not be found in 'C1'.
    WARNING (CMI-2943): Parameter checks have been ignored because the valid value for parameter 'trise' could not be found in 'I0.R2.CM'.
    WARNING (CMI-2943): Parameter checks have been ignored because the valid value for parameter 'trise' could not be found in 'I0.R2.CS1'.
    WARNING (CMI-2943): Parameter checks have been ignored because the valid value for parameter 'trise' could not be found in 'I0.R2.CS0'.
    WARNING (CMI-2943): Parameter checks have been ignored because the valid value for parameter 'trise' could not be found in 'I0.C3.C1'.
        Further occurrences of this warning will be suppressed.

Convergence achieved in 12 iterations.
DC simulation time: CPU = 2.4 ms, elapsed = 2.39992 ms.
Important parameter values:
    start = 0 s
    outputstart = 0 s
    stop = 50 s
    step = 50 ms
    maxstep = 500 ms
    ic = all
    useprevic = no
    skipdc = no
    reltol = 10e-06
    abstol(V) = 1 uV
    abstol(I) = 1 pA
    temp = 85 C
    tnom = 27 C
    tempeffects = all
    errpreset = conservative
    method = gear2only
    lteratio = 10
    relref = alllocal
    cmin = 0 F
    gmin = 1 pS
    rabsshort = 1 mOhm


Notice from spectre during transient analysis `tran', during Monte Carlo analysis `mc1'.
    Multithreading is disabled due to the size of the design being too small.


Output and IC/nodeset summary:
                 save   8       (current)
                 save   87      (voltage)

    tran: time = 1.456 s     (2.91 %), step = 500 ms          (1 %)
    tran: time = 3.956 s     (7.91 %), step = 500 ms          (1 %)
    tran: time = 6.456 s     (12.9 %), step = 500 ms          (1 %)
    tran: time = 8.956 s     (17.9 %), step = 500 ms          (1 %)
    tran: time = 11.46 s     (22.9 %), step = 500 ms          (1 %)
    tran: time = 13.96 s     (27.9 %), step = 500 ms          (1 %)
    tran: time = 16.46 s     (32.9 %), step = 500 ms          (1 %)
    tran: time = 18.96 s     (37.9 %), step = 500 ms          (1 %)
    tran: time = 21.46 s     (42.9 %), step = 500 ms          (1 %)
    tran: time = 23.96 s     (47.9 %), step = 500 ms          (1 %)
    tran: time = 26.46 s     (52.9 %), step = 500 ms          (1 %)
    tran: time = 28.96 s     (57.9 %), step = 500 ms          (1 %)
    tran: time = 31.46 s     (62.9 %), step = 500 ms          (1 %)
    tran: time = 33.96 s     (67.9 %), step = 500 ms          (1 %)
    tran: time = 36.46 s     (72.9 %), step = 500 ms          (1 %)
    tran: time = 38.96 s     (77.9 %), step = 500 ms          (1 %)
    tran: time = 41.46 s     (82.9 %), step = 500 ms          (1 %)
    tran: time = 43.96 s     (87.9 %), step = 500 ms          (1 %)
    tran: time = 46.46 s     (92.9 %), step = 500 ms          (1 %)
    tran: time = 48.96 s     (97.9 %), step = 500 ms          (1 %)
Number of accepted tran steps =             683

Maximum value achieved for any signal of each quantity: 
V: V(S<0>) = 3.3 V
I: I(V8:p) = 7.539 uA
Maximum value of each quantity, excluding Verilog-A modules or dangling current sources:
V: V(vout_filt) = 3.258 V
I: I(V8:p) = 7.539 uA

~~~~~~~~~~~~~~~~~~~~~~~~~~~~~~~~~
Post-Transient Simulation Summary
~~~~~~~~~~~~~~~~~~~~~~~~~~~~~~~~~
   -   To further speed up simulation, consider
          add ++aps on command line
   -   Non-default settings that could significantly slow down simulation
          errpreset = conservative, default moderate
          reltol = 10e-06, default 100e-06 (conservative)
~~~~~~~~~~~~~~~~~~~~~~~~~~~~~~~~~


During simulation, the CPU load for active processors is :
         0 (100.0 %)     1 (81.6 %)      2 (29.4 %)      3 (36.7 %)
         4 (37.7 %)      5 (51.5 %)      6 (26.2 %)      7 (59.7 %)
         8 (100.0 %)     9 (31.7 %)     10 (56.2 %)     11 (100.0 %)
        12 (32.5 %)     13 (26.2 %)     14 (41.4 %)     15 (41.9 %)
        16 (43.5 %)     17 (9.4 %)      18 (32.9 %)     19 (79.1 %)
        20 (57.0 %)     21 (58.9 %)     22 (100.0 %)    23 (19.7 %)
        24 (56.4 %)     25 (52.8 %)     26 (33.8 %)     27 (35.7 %)
        28 (50.2 %)     29 (100.0 %)    30 (37.3 %)     31 (6.1 %)
        32 (30.6 %)     33 (10.6 %)     34 (100.0 %)    35 (7.4 %)
        36 (81.4 %)     37 (17.9 %)     38 (33.5 %)     39 (16.8 %)
        40 (9.1 %)      41 (16.2 %)     42 (72.4 %)     43 (16.1 %)
        44 (47.3 %)     45 (38.9 %)     46 (100.0 %)    47 (72.3 %)
        Total: 2296.0%
Initial condition solution time: CPU = 2.453 ms, elapsed = 2.45404 ms.
Intrinsic tran analysis time:    CPU = 369.681 ms, elapsed = 371.988 ms.
Total time required for tran analysis `tran': CPU = 374.692 ms, elapsed = 377.575 ms, util. = 99.2%.
Time accumulated: CPU = 1.75498 s, elapsed = 2.39301 s.
Peak resident memory used = 213 Mbytes.


Notice from spectre during transient analysis `tran', during Monte Carlo analysis `mc1'.
    34 warnings suppressed.

finalTimeOP: writing operating point information to rawfile.

Opening the PSF file ../psf/mc1_separate/002/finalTimeOP.info ...
modelParameter: writing model parameter values to rawfile.

Opening the PSF file ../psf/mc1_separate/002/modelParameter.info ...
element: writing instance parameter values to rawfile.

Opening the PSF file ../psf/mc1_separate/002/element.info ...
outputParameter: writing output parameter values to rawfile.

Opening the PSF file ../psf/mc1_separate/002/outputParameter.info ...
designParamVals: writing netlist parameters to rawfile.

Opening the PSFASCII file ../psf/mc1_separate/002/designParamVals.info ...
primitives: writing primitives to rawfile.

Opening the PSFASCII file ../psf/mc1_separate/002/primitives.info.primitives ...
subckts: writing subcircuits to rawfile.

Opening the PSFASCII file ../psf/mc1_separate/002/subckts.info.subckts ...
3   2.02% 

*****************************************************************************************
* 
* INFO: AMS_processOption = C35B4C3
* 
* INFO: Valid Modules  PIP VG5 HIRES
* 
*****************************************************************************************


Notice from spectre during Monte Carlo analysis `mc1'.
    V8: `period' has the unusually large value of 100 s.


***********************************************
Transient Analysis `tran': time = (0 s -> 50 s)
***********************************************

Opening the PSF file ../psf/mc1_separate/003/tran.tran.tran ...

Warning from spectre during check, during IC analysis, during transient analysis `tran', during Monte Carlo analysis `mc1'.
    WARNING (CMI-2943): Parameter checks have been ignored because the valid value for parameter 'trise' could not be found in 'C1'.
    WARNING (CMI-2943): Parameter checks have been ignored because the valid value for parameter 'trise' could not be found in 'I0.R2.CM'.
    WARNING (CMI-2943): Parameter checks have been ignored because the valid value for parameter 'trise' could not be found in 'I0.R2.CS1'.
    WARNING (CMI-2943): Parameter checks have been ignored because the valid value for parameter 'trise' could not be found in 'I0.R2.CS0'.
    WARNING (CMI-2943): Parameter checks have been ignored because the valid value for parameter 'trise' could not be found in 'I0.C3.C1'.
        Further occurrences of this warning will be suppressed.

Convergence achieved in 12 iterations.
DC simulation time: CPU = 2.719 ms, elapsed = 2.72608 ms.
Important parameter values:
    start = 0 s
    outputstart = 0 s
    stop = 50 s
    step = 50 ms
    maxstep = 500 ms
    ic = all
    useprevic = no
    skipdc = no
    reltol = 10e-06
    abstol(V) = 1 uV
    abstol(I) = 1 pA
    temp = 85 C
    tnom = 27 C
    tempeffects = all
    errpreset = conservative
    method = gear2only
    lteratio = 10
    relref = alllocal
    cmin = 0 F
    gmin = 1 pS
    rabsshort = 1 mOhm


Notice from spectre during transient analysis `tran', during Monte Carlo analysis `mc1'.
    Multithreading is disabled due to the size of the design being too small.


Output and IC/nodeset summary:
                 save   8       (current)
                 save   87      (voltage)

    tran: time = 1.444 s     (2.89 %), step = 500 ms          (1 %)
    tran: time = 3.944 s     (7.89 %), step = 500 ms          (1 %)
    tran: time = 6.444 s     (12.9 %), step = 500 ms          (1 %)
    tran: time = 8.944 s     (17.9 %), step = 500 ms          (1 %)
    tran: time = 11.44 s     (22.9 %), step = 500 ms          (1 %)
    tran: time = 13.94 s     (27.9 %), step = 500 ms          (1 %)
    tran: time = 16.44 s     (32.9 %), step = 500 ms          (1 %)
    tran: time = 18.94 s     (37.9 %), step = 500 ms          (1 %)
    tran: time = 21.44 s     (42.9 %), step = 500 ms          (1 %)
    tran: time = 23.94 s     (47.9 %), step = 500 ms          (1 %)
    tran: time = 26.44 s     (52.9 %), step = 500 ms          (1 %)
    tran: time = 28.94 s     (57.9 %), step = 500 ms          (1 %)
    tran: time = 31.44 s     (62.9 %), step = 500 ms          (1 %)
    tran: time = 33.94 s     (67.9 %), step = 500 ms          (1 %)
    tran: time = 36.44 s     (72.9 %), step = 500 ms          (1 %)
    tran: time = 38.94 s     (77.9 %), step = 500 ms          (1 %)
    tran: time = 41.44 s     (82.9 %), step = 500 ms          (1 %)
    tran: time = 43.94 s     (87.9 %), step = 500 ms          (1 %)
    tran: time = 46.44 s     (92.9 %), step = 500 ms          (1 %)
    tran: time = 48.94 s     (97.9 %), step = 500 ms          (1 %)
Number of accepted tran steps =             679

Maximum value achieved for any signal of each quantity: 
V: V(S<0>) = 3.3 V
I: I(V8:p) = 7.428 uA
Maximum value of each quantity, excluding Verilog-A modules or dangling current sources:
V: V(vout_filt) = 3.201 V
I: I(V8:p) = 7.428 uA

~~~~~~~~~~~~~~~~~~~~~~~~~~~~~~~~~
Post-Transient Simulation Summary
~~~~~~~~~~~~~~~~~~~~~~~~~~~~~~~~~
   -   To further speed up simulation, consider
          add ++aps on command line
   -   Non-default settings that could significantly slow down simulation
          errpreset = conservative, default moderate
          reltol = 10e-06, default 100e-06 (conservative)
~~~~~~~~~~~~~~~~~~~~~~~~~~~~~~~~~


During simulation, the CPU load for active processors is :
         0 (100.0 %)     1 (84.5 %)      2 (40.3 %)      3 (45.0 %)
         4 (36.8 %)      5 (47.1 %)      6 (23.2 %)      7 (51.6 %)
         8 (100.0 %)     9 (30.4 %)     10 (56.7 %)     11 (100.0 %)
        12 (33.2 %)     13 (37.6 %)     14 (37.0 %)     15 (50.0 %)
        16 (39.1 %)     17 (21.4 %)     18 (30.3 %)     19 (69.3 %)
        20 (50.7 %)     21 (53.0 %)     22 (100.0 %)    23 (19.3 %)
        24 (49.6 %)     25 (58.7 %)     26 (31.1 %)     27 (42.0 %)
        28 (43.4 %)     29 (100.0 %)    30 (33.0 %)     31 (6.3 %)
        32 (41.4 %)     33 (11.9 %)     34 (100.0 %)    35 (9.9 %)
        36 (71.7 %)     37 (26.2 %)     38 (30.3 %)     39 (25.2 %)
        40 (9.2 %)      41 (17.0 %)     42 (74.8 %)     43 (17.2 %)
        44 (42.7 %)     45 (37.3 %)     46 (100.0 %)    47 (73.4 %)
        Total: 2308.7%
Initial condition solution time: CPU = 2.764 ms, elapsed = 2.77305 ms.
Intrinsic tran analysis time:    CPU = 369.067 ms, elapsed = 370.439 ms.
Total time required for tran analysis `tran': CPU = 374.418 ms, elapsed = 376.725 ms, util. = 99.4%.
Time accumulated: CPU = 2.16616 s, elapsed = 2.81897 s.
Peak resident memory used = 213 Mbytes.


Notice from spectre during transient analysis `tran', during Monte Carlo analysis `mc1'.
    34 warnings suppressed.

finalTimeOP: writing operating point information to rawfile.

Opening the PSF file ../psf/mc1_separate/003/finalTimeOP.info ...
modelParameter: writing model parameter values to rawfile.

Opening the PSF file ../psf/mc1_separate/003/modelParameter.info ...
element: writing instance parameter values to rawfile.

Opening the PSF file ../psf/mc1_separate/003/element.info ...
outputParameter: writing output parameter values to rawfile.

Opening the PSF file ../psf/mc1_separate/003/outputParameter.info ...
designParamVals: writing netlist parameters to rawfile.

Opening the PSFASCII file ../psf/mc1_separate/003/designParamVals.info ...
primitives: writing primitives to rawfile.

Opening the PSFASCII file ../psf/mc1_separate/003/primitives.info.primitives ...
subckts: writing subcircuits to rawfile.

Opening the PSFASCII file ../psf/mc1_separate/003/subckts.info.subckts ...
4   3.03% 

*****************************************************************************************
* 
* INFO: AMS_processOption = C35B4C3
* 
* INFO: Valid Modules  PIP VG5 HIRES
* 
*****************************************************************************************


Notice from spectre during Monte Carlo analysis `mc1'.
    V8: `period' has the unusually large value of 100 s.


***********************************************
Transient Analysis `tran': time = (0 s -> 50 s)
***********************************************

Opening the PSF file ../psf/mc1_separate/004/tran.tran.tran ...

Warning from spectre during check, during IC analysis, during transient analysis `tran', during Monte Carlo analysis `mc1'.
    WARNING (CMI-2943): Parameter checks have been ignored because the valid value for parameter 'trise' could not be found in 'C1'.
    WARNING (CMI-2943): Parameter checks have been ignored because the valid value for parameter 'trise' could not be found in 'I0.R2.CM'.
    WARNING (CMI-2943): Parameter checks have been ignored because the valid value for parameter 'trise' could not be found in 'I0.R2.CS1'.
    WARNING (CMI-2943): Parameter checks have been ignored because the valid value for parameter 'trise' could not be found in 'I0.R2.CS0'.
    WARNING (CMI-2943): Parameter checks have been ignored because the valid value for parameter 'trise' could not be found in 'I0.C3.C1'.
        Further occurrences of this warning will be suppressed.

Convergence achieved in 12 iterations.
DC simulation time: CPU = 2.347 ms, elapsed = 2.3489 ms.
Important parameter values:
    start = 0 s
    outputstart = 0 s
    stop = 50 s
    step = 50 ms
    maxstep = 500 ms
    ic = all
    useprevic = no
    skipdc = no
    reltol = 10e-06
    abstol(V) = 1 uV
    abstol(I) = 1 pA
    temp = 85 C
    tnom = 27 C
    tempeffects = all
    errpreset = conservative
    method = gear2only
    lteratio = 10
    relref = alllocal
    cmin = 0 F
    gmin = 1 pS
    rabsshort = 1 mOhm


Notice from spectre during transient analysis `tran', during Monte Carlo analysis `mc1'.
    Multithreading is disabled due to the size of the design being too small.


Output and IC/nodeset summary:
                 save   8       (current)
                 save   87      (voltage)

    tran: time = 1.687 s     (3.37 %), step = 500 ms          (1 %)
    tran: time = 4.187 s     (8.37 %), step = 500 ms          (1 %)
    tran: time = 6.687 s     (13.4 %), step = 500 ms          (1 %)
    tran: time = 9.187 s     (18.4 %), step = 500 ms          (1 %)
    tran: time = 11.69 s     (23.4 %), step = 500 ms          (1 %)
    tran: time = 14.19 s     (28.4 %), step = 500 ms          (1 %)
    tran: time = 16.69 s     (33.4 %), step = 500 ms          (1 %)
    tran: time = 19.19 s     (38.4 %), step = 500 ms          (1 %)
    tran: time = 21.69 s     (43.4 %), step = 500 ms          (1 %)
    tran: time = 24.19 s     (48.4 %), step = 500 ms          (1 %)
    tran: time = 26.69 s     (53.4 %), step = 500 ms          (1 %)
    tran: time = 29.19 s     (58.4 %), step = 500 ms          (1 %)
    tran: time = 31.69 s     (63.4 %), step = 500 ms          (1 %)
    tran: time = 34.19 s     (68.4 %), step = 500 ms          (1 %)
    tran: time = 36.69 s     (73.4 %), step = 500 ms          (1 %)
    tran: time = 39.19 s     (78.4 %), step = 500 ms          (1 %)
    tran: time = 41.69 s     (83.4 %), step = 500 ms          (1 %)
    tran: time = 44.19 s     (88.4 %), step = 500 ms          (1 %)
    tran: time = 46.69 s     (93.4 %), step = 500 ms          (1 %)
    tran: time = 49.19 s     (98.4 %), step = 500 ms          (1 %)
Number of accepted tran steps =             677

Maximum value achieved for any signal of each quantity: 
V: V(S<0>) = 3.3 V
I: I(V8:p) = 7.69 uA
Maximum value of each quantity, excluding Verilog-A modules or dangling current sources:
V: V(vout_filt) = 3.186 V
I: I(V8:p) = 7.69 uA

~~~~~~~~~~~~~~~~~~~~~~~~~~~~~~~~~
Post-Transient Simulation Summary
~~~~~~~~~~~~~~~~~~~~~~~~~~~~~~~~~
   -   To further speed up simulation, consider
          add ++aps on command line
   -   Non-default settings that could significantly slow down simulation
          errpreset = conservative, default moderate
          reltol = 10e-06, default 100e-06 (conservative)
~~~~~~~~~~~~~~~~~~~~~~~~~~~~~~~~~


During simulation, the CPU load for active processors is :
         0 (99.7 %)      1 (86.5 %)      2 (45.3 %)      3 (52.2 %)
         4 (45.2 %)      5 (45.5 %)      6 (21.5 %)      7 (53.3 %)
         8 (100.0 %)     9 (30.7 %)     10 (50.6 %)     11 (100.0 %)
        12 (33.4 %)     13 (36.2 %)     14 (34.2 %)     15 (55.6 %)
        16 (44.1 %)     17 (19.9 %)     18 (27.5 %)     19 (67.5 %)
        20 (45.7 %)     21 (47.6 %)     22 (100.0 %)    23 (20.4 %)
        24 (44.3 %)     25 (52.4 %)     26 (28.3 %)     27 (49.2 %)
        28 (38.9 %)     29 (100.0 %)    30 (29.6 %)     31 (11.5 %)
        32 (47.8 %)     33 (23.8 %)     34 (100.0 %)    35 (9.6 %)
        36 (63.4 %)     37 (36.1 %)     38 (29.2 %)     39 (35.1 %)
        40 (8.9 %)      41 (15.7 %)     42 (78.1 %)     43 (17.8 %)
        44 (37.3 %)     45 (32.7 %)     46 (100.0 %)    47 (75.7 %)
        Total: 2328.3%
Initial condition solution time: CPU = 2.414 ms, elapsed = 2.41613 ms.
Intrinsic tran analysis time:    CPU = 366.416 ms, elapsed = 367.511 ms.
Total time required for tran analysis `tran': CPU = 371.578 ms, elapsed = 373.217 ms, util. = 99.6%.
Time accumulated: CPU = 2.5745 s, elapsed = 3.2422 s.
Peak resident memory used = 214 Mbytes.


Notice from spectre during transient analysis `tran', during Monte Carlo analysis `mc1'.
    34 warnings suppressed.

finalTimeOP: writing operating point information to rawfile.

Opening the PSF file ../psf/mc1_separate/004/finalTimeOP.info ...
modelParameter: writing model parameter values to rawfile.

Opening the PSF file ../psf/mc1_separate/004/modelParameter.info ...
element: writing instance parameter values to rawfile.

Opening the PSF file ../psf/mc1_separate/004/element.info ...
outputParameter: writing output parameter values to rawfile.

Opening the PSF file ../psf/mc1_separate/004/outputParameter.info ...
designParamVals: writing netlist parameters to rawfile.

Opening the PSFASCII file ../psf/mc1_separate/004/designParamVals.info ...
primitives: writing primitives to rawfile.

Opening the PSFASCII file ../psf/mc1_separate/004/primitives.info.primitives ...
subckts: writing subcircuits to rawfile.

Opening the PSFASCII file ../psf/mc1_separate/004/subckts.info.subckts ...
    mc1: iteration = 4           (3.03 %), step = 1            (1.01 %)
5   4.04% 

*****************************************************************************************
* 
* INFO: AMS_processOption = C35B4C3
* 
* INFO: Valid Modules  PIP VG5 HIRES
* 
*****************************************************************************************


Notice from spectre during Monte Carlo analysis `mc1'.
    V8: `period' has the unusually large value of 100 s.


***********************************************
Transient Analysis `tran': time = (0 s -> 50 s)
***********************************************

Opening the PSF file ../psf/mc1_separate/005/tran.tran.tran ...

Warning from spectre during check, during IC analysis, during transient analysis `tran', during Monte Carlo analysis `mc1'.
    WARNING (CMI-2943): Parameter checks have been ignored because the valid value for parameter 'trise' could not be found in 'C1'.
    WARNING (CMI-2943): Parameter checks have been ignored because the valid value for parameter 'trise' could not be found in 'I0.R2.CM'.
    WARNING (CMI-2943): Parameter checks have been ignored because the valid value for parameter 'trise' could not be found in 'I0.R2.CS1'.
    WARNING (CMI-2943): Parameter checks have been ignored because the valid value for parameter 'trise' could not be found in 'I0.R2.CS0'.
    WARNING (CMI-2943): Parameter checks have been ignored because the valid value for parameter 'trise' could not be found in 'I0.C3.C1'.
        Further occurrences of this warning will be suppressed.

Convergence achieved in 12 iterations.
DC simulation time: CPU = 2.402 ms, elapsed = 2.40278 ms.
Important parameter values:
    start = 0 s
    outputstart = 0 s
    stop = 50 s
    step = 50 ms
    maxstep = 500 ms
    ic = all
    useprevic = no
    skipdc = no
    reltol = 10e-06
    abstol(V) = 1 uV
    abstol(I) = 1 pA
    temp = 85 C
    tnom = 27 C
    tempeffects = all
    errpreset = conservative
    method = gear2only
    lteratio = 10
    relref = alllocal
    cmin = 0 F
    gmin = 1 pS
    rabsshort = 1 mOhm


Notice from spectre during transient analysis `tran', during Monte Carlo analysis `mc1'.
    Multithreading is disabled due to the size of the design being too small.


Output and IC/nodeset summary:
                 save   8       (current)
                 save   87      (voltage)

    tran: time = 1.34 s      (2.68 %), step = 500 ms          (1 %)
    tran: time = 3.84 s      (7.68 %), step = 500 ms          (1 %)
    tran: time = 6.34 s      (12.7 %), step = 500 ms          (1 %)
    tran: time = 8.84 s      (17.7 %), step = 500 ms          (1 %)
    tran: time = 11.34 s     (22.7 %), step = 500 ms          (1 %)
    tran: time = 13.84 s     (27.7 %), step = 500 ms          (1 %)
    tran: time = 16.34 s     (32.7 %), step = 500 ms          (1 %)
    tran: time = 18.84 s     (37.7 %), step = 500 ms          (1 %)
    tran: time = 21.34 s     (42.7 %), step = 500 ms          (1 %)
    tran: time = 23.84 s     (47.7 %), step = 500 ms          (1 %)
    tran: time = 26.34 s     (52.7 %), step = 500 ms          (1 %)
    tran: time = 28.84 s     (57.7 %), step = 500 ms          (1 %)
    tran: time = 31.34 s     (62.7 %), step = 500 ms          (1 %)
    tran: time = 33.84 s     (67.7 %), step = 500 ms          (1 %)
    tran: time = 36.34 s     (72.7 %), step = 500 ms          (1 %)
    tran: time = 38.84 s     (77.7 %), step = 500 ms          (1 %)
    tran: time = 41.34 s     (82.7 %), step = 500 ms          (1 %)
    tran: time = 43.84 s     (87.7 %), step = 500 ms          (1 %)
    tran: time = 46.34 s     (92.7 %), step = 500 ms          (1 %)
    tran: time = 48.84 s     (97.7 %), step = 500 ms          (1 %)
Number of accepted tran steps =             683

Maximum value achieved for any signal of each quantity: 
V: V(S<0>) = 3.3 V
I: I(V8:p) = 7.66 uA
Maximum value of each quantity, excluding Verilog-A modules or dangling current sources:
V: V(vout_filt) = 3.254 V
I: I(V8:p) = 7.66 uA

~~~~~~~~~~~~~~~~~~~~~~~~~~~~~~~~~
Post-Transient Simulation Summary
~~~~~~~~~~~~~~~~~~~~~~~~~~~~~~~~~
   -   To further speed up simulation, consider
          add ++aps on command line
   -   Non-default settings that could significantly slow down simulation
          errpreset = conservative, default moderate
          reltol = 10e-06, default 100e-06 (conservative)
~~~~~~~~~~~~~~~~~~~~~~~~~~~~~~~~~


During simulation, the CPU load for active processors is :
         0 (99.7 %)      1 (88.1 %)      2 (50.8 %)      3 (50.3 %)
         4 (49.9 %)      5 (44.6 %)      6 (27.1 %)      7 (58.8 %)
         8 (100.0 %)     9 (30.8 %)     10 (49.0 %)     11 (100.0 %)
        12 (32.3 %)     13 (37.0 %)     14 (32.4 %)     15 (51.3 %)
        16 (50.4 %)     17 (29.3 %)     18 (25.1 %)     19 (70.8 %)
        20 (40.8 %)     21 (42.3 %)     22 (100.0 %)    23 (18.9 %)
        24 (40.9 %)     25 (50.4 %)     26 (25.6 %)     27 (49.4 %)
        28 (36.0 %)     29 (100.0 %)    30 (26.3 %)     31 (11.0 %)
        32 (53.7 %)     33 (31.6 %)     34 (100.0 %)    35 (9.1 %)
        36 (57.1 %)     37 (36.7 %)     38 (26.6 %)     39 (40.6 %)
        40 (9.9 %)      41 (16.7 %)     42 (78.2 %)     43 (19.6 %)
        44 (34.6 %)     45 (33.9 %)     46 (100.0 %)    47 (78.6 %)
        Total: 2346.2%
Initial condition solution time: CPU = 2.441 ms, elapsed = 2.44188 ms.
Intrinsic tran analysis time:    CPU = 370.102 ms, elapsed = 371.142 ms.
Total time required for tran analysis `tran': CPU = 374.892 ms, elapsed = 376.406 ms, util. = 99.6%.
Time accumulated: CPU = 2.98635 s, elapsed = 3.66402 s.
Peak resident memory used = 214 Mbytes.


Notice from spectre during transient analysis `tran', during Monte Carlo analysis `mc1'.
    34 warnings suppressed.

finalTimeOP: writing operating point information to rawfile.

Opening the PSF file ../psf/mc1_separate/005/finalTimeOP.info ...
modelParameter: writing model parameter values to rawfile.

Opening the PSF file ../psf/mc1_separate/005/modelParameter.info ...
element: writing instance parameter values to rawfile.

Opening the PSF file ../psf/mc1_separate/005/element.info ...
outputParameter: writing output parameter values to rawfile.

Opening the PSF file ../psf/mc1_separate/005/outputParameter.info ...
designParamVals: writing netlist parameters to rawfile.

Opening the PSFASCII file ../psf/mc1_separate/005/designParamVals.info ...
primitives: writing primitives to rawfile.

Opening the PSFASCII file ../psf/mc1_separate/005/primitives.info.primitives ...
subckts: writing subcircuits to rawfile.

Opening the PSFASCII file ../psf/mc1_separate/005/subckts.info.subckts ...
    mc1: iteration = 5           (4.04 %), step = 1            (1.01 %)
6   5.05% 

*****************************************************************************************
* 
* INFO: AMS_processOption = C35B4C3
* 
* INFO: Valid Modules  PIP VG5 HIRES
* 
*****************************************************************************************


Notice from spectre during Monte Carlo analysis `mc1'.
    V8: `period' has the unusually large value of 100 s.


***********************************************
Transient Analysis `tran': time = (0 s -> 50 s)
***********************************************

Opening the PSF file ../psf/mc1_separate/006/tran.tran.tran ...

Warning from spectre during check, during IC analysis, during transient analysis `tran', during Monte Carlo analysis `mc1'.
    WARNING (CMI-2943): Parameter checks have been ignored because the valid value for parameter 'trise' could not be found in 'C1'.
    WARNING (CMI-2943): Parameter checks have been ignored because the valid value for parameter 'trise' could not be found in 'I0.R2.CM'.
    WARNING (CMI-2943): Parameter checks have been ignored because the valid value for parameter 'trise' could not be found in 'I0.R2.CS1'.
    WARNING (CMI-2943): Parameter checks have been ignored because the valid value for parameter 'trise' could not be found in 'I0.R2.CS0'.
    WARNING (CMI-2943): Parameter checks have been ignored because the valid value for parameter 'trise' could not be found in 'I0.C3.C1'.
        Further occurrences of this warning will be suppressed.

Convergence achieved in 12 iterations.
DC simulation time: CPU = 2.414 ms, elapsed = 2.41494 ms.
Important parameter values:
    start = 0 s
    outputstart = 0 s
    stop = 50 s
    step = 50 ms
    maxstep = 500 ms
    ic = all
    useprevic = no
    skipdc = no
    reltol = 10e-06
    abstol(V) = 1 uV
    abstol(I) = 1 pA
    temp = 85 C
    tnom = 27 C
    tempeffects = all
    errpreset = conservative
    method = gear2only
    lteratio = 10
    relref = alllocal
    cmin = 0 F
    gmin = 1 pS
    rabsshort = 1 mOhm


Notice from spectre during transient analysis `tran', during Monte Carlo analysis `mc1'.
    Multithreading is disabled due to the size of the design being too small.


Output and IC/nodeset summary:
                 save   8       (current)
                 save   87      (voltage)

    tran: time = 1.354 s     (2.71 %), step = 500 ms          (1 %)
    tran: time = 3.854 s     (7.71 %), step = 500 ms          (1 %)
    tran: time = 6.354 s     (12.7 %), step = 500 ms          (1 %)
    tran: time = 8.854 s     (17.7 %), step = 500 ms          (1 %)
    tran: time = 11.35 s     (22.7 %), step = 500 ms          (1 %)
    tran: time = 13.85 s     (27.7 %), step = 500 ms          (1 %)
    tran: time = 16.35 s     (32.7 %), step = 500 ms          (1 %)
    tran: time = 18.85 s     (37.7 %), step = 500 ms          (1 %)
    tran: time = 21.35 s     (42.7 %), step = 500 ms          (1 %)
    tran: time = 23.85 s     (47.7 %), step = 500 ms          (1 %)
    tran: time = 26.35 s     (52.7 %), step = 500 ms          (1 %)
    tran: time = 28.85 s     (57.7 %), step = 500 ms          (1 %)
    tran: time = 31.35 s     (62.7 %), step = 500 ms          (1 %)
    tran: time = 33.85 s     (67.7 %), step = 500 ms          (1 %)
    tran: time = 36.35 s     (72.7 %), step = 500 ms          (1 %)
    tran: time = 38.85 s     (77.7 %), step = 500 ms          (1 %)
    tran: time = 41.35 s     (82.7 %), step = 500 ms          (1 %)
    tran: time = 43.85 s     (87.7 %), step = 500 ms          (1 %)
    tran: time = 46.35 s     (92.7 %), step = 500 ms          (1 %)
    tran: time = 48.85 s     (97.7 %), step = 500 ms          (1 %)
Number of accepted tran steps =             681

Maximum value achieved for any signal of each quantity: 
V: V(S<0>) = 3.3 V
I: I(V8:p) = 7.697 uA
Maximum value of each quantity, excluding Verilog-A modules or dangling current sources:
V: V(vout_filt) = 3.228 V
I: I(V8:p) = 7.697 uA

~~~~~~~~~~~~~~~~~~~~~~~~~~~~~~~~~
Post-Transient Simulation Summary
~~~~~~~~~~~~~~~~~~~~~~~~~~~~~~~~~
   -   To further speed up simulation, consider
          add ++aps on command line
   -   Non-default settings that could significantly slow down simulation
          errpreset = conservative, default moderate
          reltol = 10e-06, default 100e-06 (conservative)
~~~~~~~~~~~~~~~~~~~~~~~~~~~~~~~~~


During simulation, the CPU load for active processors is :
         0 (99.8 %)      1 (88.1 %)      2 (55.4 %)      3 (52.1 %)
         4 (50.0 %)      5 (42.0 %)      6 (30.5 %)      7 (63.1 %)
         8 (100.0 %)     9 (28.6 %)     10 (44.9 %)     11 (100.0 %)
        12 (31.5 %)     13 (42.2 %)     14 (32.2 %)     15 (50.9 %)
        16 (52.0 %)     17 (31.2 %)     18 (32.2 %)     19 (66.6 %)
        20 (37.9 %)     21 (41.4 %)     22 (97.5 %)     23 (19.5 %)
        24 (38.5 %)     25 (55.8 %)     26 (29.2 %)     27 (46.8 %)
        28 (33.2 %)     29 (100.0 %)    30 (24.5 %)     31 (10.2 %)
        32 (53.0 %)     33 (38.4 %)     34 (94.3 %)     35 (14.0 %)
        36 (52.2 %)     37 (34.5 %)     38 (30.1 %)     39 (39.4 %)
        40 (10.3 %)     41 (21.2 %)     42 (73.2 %)     43 (28.0 %)
        44 (37.6 %)     45 (40.7 %)     46 (100.0 %)    47 (75.2 %)
        Total: 2369.8%
Initial condition solution time: CPU = 2.456 ms, elapsed = 2.4569 ms.
Intrinsic tran analysis time:    CPU = 370.85 ms, elapsed = 372.215 ms.
Total time required for tran analysis `tran': CPU = 375.775 ms, elapsed = 377.745 ms, util. = 99.5%.
Time accumulated: CPU = 3.40162 s, elapsed = 4.09224 s.
Peak resident memory used = 214 Mbytes.


Notice from spectre during transient analysis `tran', during Monte Carlo analysis `mc1'.
    34 warnings suppressed.

finalTimeOP: writing operating point information to rawfile.

Opening the PSF file ../psf/mc1_separate/006/finalTimeOP.info ...
modelParameter: writing model parameter values to rawfile.

Opening the PSF file ../psf/mc1_separate/006/modelParameter.info ...
element: writing instance parameter values to rawfile.

Opening the PSF file ../psf/mc1_separate/006/element.info ...
outputParameter: writing output parameter values to rawfile.

Opening the PSF file ../psf/mc1_separate/006/outputParameter.info ...
designParamVals: writing netlist parameters to rawfile.

Opening the PSFASCII file ../psf/mc1_separate/006/designParamVals.info ...
primitives: writing primitives to rawfile.

Opening the PSFASCII file ../psf/mc1_separate/006/primitives.info.primitives ...
subckts: writing subcircuits to rawfile.

Opening the PSFASCII file ../psf/mc1_separate/006/subckts.info.subckts ...
    mc1: iteration = 6           (5.05 %), step = 1            (1.01 %)
7   6.06% 

*****************************************************************************************
* 
* INFO: AMS_processOption = C35B4C3
* 
* INFO: Valid Modules  PIP VG5 HIRES
* 
*****************************************************************************************


Notice from spectre during Monte Carlo analysis `mc1'.
    V8: `period' has the unusually large value of 100 s.


***********************************************
Transient Analysis `tran': time = (0 s -> 50 s)
***********************************************

Opening the PSF file ../psf/mc1_separate/007/tran.tran.tran ...

Warning from spectre during check, during IC analysis, during transient analysis `tran', during Monte Carlo analysis `mc1'.
    WARNING (CMI-2943): Parameter checks have been ignored because the valid value for parameter 'trise' could not be found in 'C1'.
    WARNING (CMI-2943): Parameter checks have been ignored because the valid value for parameter 'trise' could not be found in 'I0.R2.CM'.
    WARNING (CMI-2943): Parameter checks have been ignored because the valid value for parameter 'trise' could not be found in 'I0.R2.CS1'.
    WARNING (CMI-2943): Parameter checks have been ignored because the valid value for parameter 'trise' could not be found in 'I0.R2.CS0'.
    WARNING (CMI-2943): Parameter checks have been ignored because the valid value for parameter 'trise' could not be found in 'I0.C3.C1'.
        Further occurrences of this warning will be suppressed.

Convergence achieved in 12 iterations.
DC simulation time: CPU = 2.251 ms, elapsed = 2.29001 ms.
Important parameter values:
    start = 0 s
    outputstart = 0 s
    stop = 50 s
    step = 50 ms
    maxstep = 500 ms
    ic = all
    useprevic = no
    skipdc = no
    reltol = 10e-06
    abstol(V) = 1 uV
    abstol(I) = 1 pA
    temp = 85 C
    tnom = 27 C
    tempeffects = all
    errpreset = conservative
    method = gear2only
    lteratio = 10
    relref = alllocal
    cmin = 0 F
    gmin = 1 pS
    rabsshort = 1 mOhm


Notice from spectre during transient analysis `tran', during Monte Carlo analysis `mc1'.
    Multithreading is disabled due to the size of the design being too small.


Output and IC/nodeset summary:
                 save   8       (current)
                 save   87      (voltage)

    tran: time = 1.295 s     (2.59 %), step = 497.2 ms     (994 m%)
    tran: time = 3.795 s     (7.59 %), step = 500 ms          (1 %)
    tran: time = 6.295 s     (12.6 %), step = 500 ms          (1 %)
    tran: time = 8.795 s     (17.6 %), step = 500 ms          (1 %)
    tran: time = 11.29 s     (22.6 %), step = 500 ms          (1 %)
    tran: time = 13.79 s     (27.6 %), step = 500 ms          (1 %)
    tran: time = 16.29 s     (32.6 %), step = 500 ms          (1 %)
    tran: time = 18.79 s     (37.6 %), step = 500 ms          (1 %)
    tran: time = 21.29 s     (42.6 %), step = 500 ms          (1 %)
    tran: time = 23.79 s     (47.6 %), step = 500 ms          (1 %)
    tran: time = 26.29 s     (52.6 %), step = 500 ms          (1 %)
    tran: time = 28.79 s     (57.6 %), step = 500 ms          (1 %)
    tran: time = 31.29 s     (62.6 %), step = 500 ms          (1 %)
    tran: time = 33.79 s     (67.6 %), step = 500 ms          (1 %)
    tran: time = 36.29 s     (72.6 %), step = 500 ms          (1 %)
    tran: time = 38.79 s     (77.6 %), step = 500 ms          (1 %)
    tran: time = 41.29 s     (82.6 %), step = 500 ms          (1 %)
    tran: time = 43.79 s     (87.6 %), step = 500 ms          (1 %)
    tran: time = 46.29 s     (92.6 %), step = 500 ms          (1 %)
    tran: time = 48.79 s     (97.6 %), step = 500 ms          (1 %)
Number of accepted tran steps =             683

Maximum value achieved for any signal of each quantity: 
V: V(S<0>) = 3.3 V
I: I(V8:p) = 7.587 uA
Maximum value of each quantity, excluding Verilog-A modules or dangling current sources:
V: V(vout_filt) = 3.247 V
I: I(V8:p) = 7.587 uA

~~~~~~~~~~~~~~~~~~~~~~~~~~~~~~~~~
Post-Transient Simulation Summary
~~~~~~~~~~~~~~~~~~~~~~~~~~~~~~~~~
   -   To further speed up simulation, consider
          add ++aps on command line
   -   Non-default settings that could significantly slow down simulation
          errpreset = conservative, default moderate
          reltol = 10e-06, default 100e-06 (conservative)
~~~~~~~~~~~~~~~~~~~~~~~~~~~~~~~~~


During simulation, the CPU load for active processors is :
         0 (99.8 %)      1 (80.4 %)      2 (58.0 %)      3 (47.9 %)
         4 (50.9 %)      5 (44.1 %)      6 (37.1 %)      7 (63.3 %)
         8 (100.0 %)     9 (33.7 %)     10 (43.3 %)     11 (100.0 %)
        12 (29.9 %)     13 (42.8 %)     14 (31.2 %)     15 (55.5 %)
        16 (56.3 %)     17 (37.7 %)     18 (30.5 %)     19 (61.8 %)
        20 (37.1 %)     21 (43.2 %)     22 (96.8 %)     23 (18.6 %)
        24 (35.8 %)     25 (54.0 %)     26 (35.9 %)     27 (44.6 %)
        28 (31.6 %)     29 (100.0 %)    30 (22.8 %)     31 (10.4 %)
        32 (48.9 %)     33 (36.2 %)     34 (85.8 %)     35 (22.2 %)
        36 (47.7 %)     37 (33.6 %)     38 (34.6 %)     39 (41.4 %)
        40 (11.2 %)     41 (23.9 %)     42 (67.7 %)     43 (33.9 %)
        44 (37.1 %)     45 (45.9 %)     46 (100.0 %)    47 (68.4 %)
        Total: 2373.7%
Initial condition solution time: CPU = 2.288 ms, elapsed = 2.32887 ms.
Intrinsic tran analysis time:    CPU = 361.183 ms, elapsed = 363.291 ms.
Total time required for tran analysis `tran': CPU = 365.972 ms, elapsed = 368.713 ms, util. = 99.3%.
Time accumulated: CPU = 3.80486 s, elapsed = 4.50864 s.
Peak resident memory used = 214 Mbytes.


Notice from spectre during transient analysis `tran', during Monte Carlo analysis `mc1'.
    34 warnings suppressed.

finalTimeOP: writing operating point information to rawfile.

Opening the PSF file ../psf/mc1_separate/007/finalTimeOP.info ...
modelParameter: writing model parameter values to rawfile.

Opening the PSF file ../psf/mc1_separate/007/modelParameter.info ...
element: writing instance parameter values to rawfile.

Opening the PSF file ../psf/mc1_separate/007/element.info ...
outputParameter: writing output parameter values to rawfile.

Opening the PSF file ../psf/mc1_separate/007/outputParameter.info ...
designParamVals: writing netlist parameters to rawfile.

Opening the PSFASCII file ../psf/mc1_separate/007/designParamVals.info ...
primitives: writing primitives to rawfile.

Opening the PSFASCII file ../psf/mc1_separate/007/primitives.info.primitives ...
subckts: writing subcircuits to rawfile.

Opening the PSFASCII file ../psf/mc1_separate/007/subckts.info.subckts ...
    mc1: iteration = 7           (6.06 %), step = 1            (1.01 %)
8   7.07% 

*****************************************************************************************
* 
* INFO: AMS_processOption = C35B4C3
* 
* INFO: Valid Modules  PIP VG5 HIRES
* 
*****************************************************************************************


Notice from spectre during Monte Carlo analysis `mc1'.
    V8: `period' has the unusually large value of 100 s.


***********************************************
Transient Analysis `tran': time = (0 s -> 50 s)
***********************************************

Opening the PSF file ../psf/mc1_separate/008/tran.tran.tran ...

Warning from spectre during check, during IC analysis, during transient analysis `tran', during Monte Carlo analysis `mc1'.
    WARNING (CMI-2943): Parameter checks have been ignored because the valid value for parameter 'trise' could not be found in 'C1'.
    WARNING (CMI-2943): Parameter checks have been ignored because the valid value for parameter 'trise' could not be found in 'I0.R2.CM'.
    WARNING (CMI-2943): Parameter checks have been ignored because the valid value for parameter 'trise' could not be found in 'I0.R2.CS1'.
    WARNING (CMI-2943): Parameter checks have been ignored because the valid value for parameter 'trise' could not be found in 'I0.R2.CS0'.
    WARNING (CMI-2943): Parameter checks have been ignored because the valid value for parameter 'trise' could not be found in 'I0.C3.C1'.
        Further occurrences of this warning will be suppressed.

Convergence achieved in 12 iterations.
DC simulation time: CPU = 2.361 ms, elapsed = 2.36201 ms.
Important parameter values:
    start = 0 s
    outputstart = 0 s
    stop = 50 s
    step = 50 ms
    maxstep = 500 ms
    ic = all
    useprevic = no
    skipdc = no
    reltol = 10e-06
    abstol(V) = 1 uV
    abstol(I) = 1 pA
    temp = 85 C
    tnom = 27 C
    tempeffects = all
    errpreset = conservative
    method = gear2only
    lteratio = 10
    relref = alllocal
    cmin = 0 F
    gmin = 1 pS
    rabsshort = 1 mOhm


Notice from spectre during transient analysis `tran', during Monte Carlo analysis `mc1'.
    Multithreading is disabled due to the size of the design being too small.


Output and IC/nodeset summary:
                 save   8       (current)
                 save   87      (voltage)

    tran: time = 1.457 s     (2.91 %), step = 500 ms          (1 %)
    tran: time = 3.957 s     (7.91 %), step = 500 ms          (1 %)
    tran: time = 6.457 s     (12.9 %), step = 500 ms          (1 %)
    tran: time = 8.957 s     (17.9 %), step = 500 ms          (1 %)
    tran: time = 11.46 s     (22.9 %), step = 500 ms          (1 %)
    tran: time = 13.96 s     (27.9 %), step = 500 ms          (1 %)
    tran: time = 16.46 s     (32.9 %), step = 500 ms          (1 %)
    tran: time = 18.96 s     (37.9 %), step = 500 ms          (1 %)
    tran: time = 21.46 s     (42.9 %), step = 500 ms          (1 %)
    tran: time = 23.96 s     (47.9 %), step = 500 ms          (1 %)
    tran: time = 26.46 s     (52.9 %), step = 500 ms          (1 %)
    tran: time = 28.96 s     (57.9 %), step = 500 ms          (1 %)
    tran: time = 31.46 s     (62.9 %), step = 500 ms          (1 %)
    tran: time = 33.96 s     (67.9 %), step = 500 ms          (1 %)
    tran: time = 36.46 s     (72.9 %), step = 500 ms          (1 %)
    tran: time = 38.96 s     (77.9 %), step = 500 ms          (1 %)
    tran: time = 41.46 s     (82.9 %), step = 500 ms          (1 %)
    tran: time = 43.96 s     (87.9 %), step = 500 ms          (1 %)
    tran: time = 46.46 s     (92.9 %), step = 500 ms          (1 %)
    tran: time = 48.96 s     (97.9 %), step = 500 ms          (1 %)
Number of accepted tran steps =             684

Maximum value achieved for any signal of each quantity: 
V: V(S<0>) = 3.3 V
I: I(V8:p) = 7.624 uA
Maximum value of each quantity, excluding Verilog-A modules or dangling current sources:
V: V(vout_filt) = 3.256 V
I: I(V8:p) = 7.624 uA

~~~~~~~~~~~~~~~~~~~~~~~~~~~~~~~~~
Post-Transient Simulation Summary
~~~~~~~~~~~~~~~~~~~~~~~~~~~~~~~~~
   -   To further speed up simulation, consider
          add ++aps on command line
   -   Non-default settings that could significantly slow down simulation
          errpreset = conservative, default moderate
          reltol = 10e-06, default 100e-06 (conservative)
~~~~~~~~~~~~~~~~~~~~~~~~~~~~~~~~~


During simulation, the CPU load for active processors is :
         0 (99.8 %)      1 (74.3 %)      2 (54.5 %)      3 (47.6 %)
         4 (54.8 %)      5 (41.4 %)      6 (42.5 %)      7 (58.7 %)
         8 (100.0 %)     9 (36.8 %)     10 (39.8 %)     11 (100.0 %)
        12 (29.0 %)     13 (40.0 %)     14 (31.2 %)     15 (56.0 %)
        16 (59.3 %)     17 (43.2 %)     18 (31.5 %)     19 (58.6 %)
        20 (34.2 %)     21 (46.6 %)     22 (89.1 %)     23 (25.2 %)
        24 (33.5 %)     25 (50.0 %)     26 (41.5 %)     27 (42.5 %)
        28 (30.5 %)     29 (100.0 %)    30 (26.9 %)     31 (9.7 %)
        32 (45.2 %)     33 (33.7 %)     34 (79.5 %)     35 (28.9 %)
        36 (44.1 %)     37 (31.2 %)     38 (32.4 %)     39 (46.5 %)
        40 (10.6 %)     41 (30.2 %)     42 (67.6 %)     43 (31.5 %)
        44 (36.5 %)     45 (46.1 %)     46 (100.0 %)    47 (63.4 %)
        Total: 2356.1%
Initial condition solution time: CPU = 2.417 ms, elapsed = 2.41804 ms.
Intrinsic tran analysis time:    CPU = 361.286 ms, elapsed = 362.791 ms.
Total time required for tran analysis `tran': CPU = 366.259 ms, elapsed = 368.341 ms, util. = 99.4%.
Time accumulated: CPU = 4.20805 s, elapsed = 4.92469 s.
Peak resident memory used = 214 Mbytes.


Notice from spectre during transient analysis `tran', during Monte Carlo analysis `mc1'.
    34 warnings suppressed.

finalTimeOP: writing operating point information to rawfile.

Opening the PSF file ../psf/mc1_separate/008/finalTimeOP.info ...
modelParameter: writing model parameter values to rawfile.

Opening the PSF file ../psf/mc1_separate/008/modelParameter.info ...
element: writing instance parameter values to rawfile.

Opening the PSF file ../psf/mc1_separate/008/element.info ...
outputParameter: writing output parameter values to rawfile.

Opening the PSF file ../psf/mc1_separate/008/outputParameter.info ...
designParamVals: writing netlist parameters to rawfile.

Opening the PSFASCII file ../psf/mc1_separate/008/designParamVals.info ...
primitives: writing primitives to rawfile.

Opening the PSFASCII file ../psf/mc1_separate/008/primitives.info.primitives ...
subckts: writing subcircuits to rawfile.

Opening the PSFASCII file ../psf/mc1_separate/008/subckts.info.subckts ...
    mc1: iteration = 8           (7.07 %), step = 1            (1.01 %)
9   8.08% 

*****************************************************************************************
* 
* INFO: AMS_processOption = C35B4C3
* 
* INFO: Valid Modules  PIP VG5 HIRES
* 
*****************************************************************************************


Notice from spectre during Monte Carlo analysis `mc1'.
    V8: `period' has the unusually large value of 100 s.


***********************************************
Transient Analysis `tran': time = (0 s -> 50 s)
***********************************************

Opening the PSF file ../psf/mc1_separate/009/tran.tran.tran ...

Warning from spectre during check, during IC analysis, during transient analysis `tran', during Monte Carlo analysis `mc1'.
    WARNING (CMI-2943): Parameter checks have been ignored because the valid value for parameter 'trise' could not be found in 'C1'.
    WARNING (CMI-2943): Parameter checks have been ignored because the valid value for parameter 'trise' could not be found in 'I0.R2.CM'.
    WARNING (CMI-2943): Parameter checks have been ignored because the valid value for parameter 'trise' could not be found in 'I0.R2.CS1'.
    WARNING (CMI-2943): Parameter checks have been ignored because the valid value for parameter 'trise' could not be found in 'I0.R2.CS0'.
    WARNING (CMI-2943): Parameter checks have been ignored because the valid value for parameter 'trise' could not be found in 'I0.C3.C1'.
        Further occurrences of this warning will be suppressed.

Convergence achieved in 12 iterations.
DC simulation time: CPU = 2.259 ms, elapsed = 2.25997 ms.
Important parameter values:
    start = 0 s
    outputstart = 0 s
    stop = 50 s
    step = 50 ms
    maxstep = 500 ms
    ic = all
    useprevic = no
    skipdc = no
    reltol = 10e-06
    abstol(V) = 1 uV
    abstol(I) = 1 pA
    temp = 85 C
    tnom = 27 C
    tempeffects = all
    errpreset = conservative
    method = gear2only
    lteratio = 10
    relref = alllocal
    cmin = 0 F
    gmin = 1 pS
    rabsshort = 1 mOhm


Notice from spectre during transient analysis `tran', during Monte Carlo analysis `mc1'.
    Multithreading is disabled due to the size of the design being too small.


Output and IC/nodeset summary:
                 save   8       (current)
                 save   87      (voltage)

    tran: time = 1.567 s     (3.13 %), step = 500 ms          (1 %)
    tran: time = 4.067 s     (8.13 %), step = 500 ms          (1 %)
    tran: time = 6.567 s     (13.1 %), step = 500 ms          (1 %)
    tran: time = 9.067 s     (18.1 %), step = 500 ms          (1 %)
    tran: time = 11.57 s     (23.1 %), step = 500 ms          (1 %)
    tran: time = 14.07 s     (28.1 %), step = 500 ms          (1 %)
    tran: time = 16.57 s     (33.1 %), step = 500 ms          (1 %)
    tran: time = 19.07 s     (38.1 %), step = 500 ms          (1 %)
    tran: time = 21.57 s     (43.1 %), step = 500 ms          (1 %)
    tran: time = 24.07 s     (48.1 %), step = 500 ms          (1 %)
    tran: time = 26.57 s     (53.1 %), step = 500 ms          (1 %)
    tran: time = 29.07 s     (58.1 %), step = 500 ms          (1 %)
    tran: time = 31.57 s     (63.1 %), step = 500 ms          (1 %)
    tran: time = 34.07 s     (68.1 %), step = 500 ms          (1 %)
    tran: time = 36.57 s     (73.1 %), step = 500 ms          (1 %)
    tran: time = 39.07 s     (78.1 %), step = 500 ms          (1 %)
    tran: time = 41.57 s     (83.1 %), step = 500 ms          (1 %)
    tran: time = 44.07 s     (88.1 %), step = 500 ms          (1 %)
    tran: time = 46.57 s     (93.1 %), step = 500 ms          (1 %)
    tran: time = 49.07 s     (98.1 %), step = 500 ms          (1 %)
Number of accepted tran steps =             686

Maximum value achieved for any signal of each quantity: 
V: V(S<0>) = 3.3 V
I: I(V8:p) = 7.424 uA
Maximum value of each quantity, excluding Verilog-A modules or dangling current sources:
V: V(vout_filt) = 3.275 V
I: I(V8:p) = 7.424 uA

~~~~~~~~~~~~~~~~~~~~~~~~~~~~~~~~~
Post-Transient Simulation Summary
~~~~~~~~~~~~~~~~~~~~~~~~~~~~~~~~~
   -   To further speed up simulation, consider
          add ++aps on command line
   -   Non-default settings that could significantly slow down simulation
          errpreset = conservative, default moderate
          reltol = 10e-06, default 100e-06 (conservative)
~~~~~~~~~~~~~~~~~~~~~~~~~~~~~~~~~


During simulation, the CPU load for active processors is :
         0 (99.8 %)      1 (69.7 %)      2 (52.1 %)      3 (44.5 %)
         4 (53.1 %)      5 (43.2 %)      6 (47.0 %)      7 (54.3 %)
         8 (99.8 %)      9 (35.1 %)     10 (36.9 %)     11 (100.0 %)
        12 (34.2 %)     13 (37.3 %)     14 (30.5 %)     15 (51.9 %)
        16 (62.4 %)     17 (47.8 %)     18 (29.6 %)     19 (54.5 %)
        20 (31.7 %)     21 (43.2 %)     22 (82.6 %)     23 (30.8 %)
        24 (31.4 %)     25 (47.3 %)     26 (46.1 %)     27 (40.7 %)
        28 (28.5 %)     29 (100.0 %)    30 (32.5 %)     31 (9.5 %)
        32 (41.8 %)     33 (31.1 %)     34 (73.7 %)     35 (33.9 %)
        36 (41.2 %)     37 (35.1 %)     38 (31.4 %)     39 (50.7 %)
        40 (10.0 %)     41 (31.9 %)     42 (66.1 %)     43 (29.4 %)
        44 (41.6 %)     45 (43.0 %)     46 (100.0 %)    47 (58.7 %)
        Total: 2327.6%
Initial condition solution time: CPU = 2.312 ms, elapsed = 2.31504 ms.
Intrinsic tran analysis time:    CPU = 357.831 ms, elapsed = 359.437 ms.
Total time required for tran analysis `tran': CPU = 362.492 ms, elapsed = 364.674 ms, util. = 99.4%.
Time accumulated: CPU = 4.60585 s, elapsed = 5.33456 s.
Peak resident memory used = 214 Mbytes.


Notice from spectre during transient analysis `tran', during Monte Carlo analysis `mc1'.
    34 warnings suppressed.

finalTimeOP: writing operating point information to rawfile.

Opening the PSF file ../psf/mc1_separate/009/finalTimeOP.info ...
modelParameter: writing model parameter values to rawfile.

Opening the PSF file ../psf/mc1_separate/009/modelParameter.info ...
element: writing instance parameter values to rawfile.

Opening the PSF file ../psf/mc1_separate/009/element.info ...
outputParameter: writing output parameter values to rawfile.

Opening the PSF file ../psf/mc1_separate/009/outputParameter.info ...
designParamVals: writing netlist parameters to rawfile.

Opening the PSFASCII file ../psf/mc1_separate/009/designParamVals.info ...
primitives: writing primitives to rawfile.

Opening the PSFASCII file ../psf/mc1_separate/009/primitives.info.primitives ...
subckts: writing subcircuits to rawfile.

Opening the PSFASCII file ../psf/mc1_separate/009/subckts.info.subckts ...
    mc1: iteration = 9           (8.08 %), step = 1            (1.01 %)
10   9.09% 

*****************************************************************************************
* 
* INFO: AMS_processOption = C35B4C3
* 
* INFO: Valid Modules  PIP VG5 HIRES
* 
*****************************************************************************************


Notice from spectre during Monte Carlo analysis `mc1'.
    V8: `period' has the unusually large value of 100 s.


***********************************************
Transient Analysis `tran': time = (0 s -> 50 s)
***********************************************

Opening the PSF file ../psf/mc1_separate/010/tran.tran.tran ...

Warning from spectre during check, during IC analysis, during transient analysis `tran', during Monte Carlo analysis `mc1'.
    WARNING (CMI-2943): Parameter checks have been ignored because the valid value for parameter 'trise' could not be found in 'C1'.
    WARNING (CMI-2943): Parameter checks have been ignored because the valid value for parameter 'trise' could not be found in 'I0.R2.CM'.
    WARNING (CMI-2943): Parameter checks have been ignored because the valid value for parameter 'trise' could not be found in 'I0.R2.CS1'.
    WARNING (CMI-2943): Parameter checks have been ignored because the valid value for parameter 'trise' could not be found in 'I0.R2.CS0'.
    WARNING (CMI-2943): Parameter checks have been ignored because the valid value for parameter 'trise' could not be found in 'I0.C3.C1'.
        Further occurrences of this warning will be suppressed.

Convergence achieved in 12 iterations.
DC simulation time: CPU = 2.276 ms, elapsed = 2.2769 ms.
Important parameter values:
    start = 0 s
    outputstart = 0 s
    stop = 50 s
    step = 50 ms
    maxstep = 500 ms
    ic = all
    useprevic = no
    skipdc = no
    reltol = 10e-06
[...]
    WARNING (CMI-2943): Parameter checks have been ignored because the valid value for parameter 'trise' could not be found in 'I0.R2.CM'.
    WARNING (CMI-2943): Parameter checks have been ignored because the valid value for parameter 'trise' could not be found in 'I0.R2.CS1'.
    WARNING (CMI-2943): Parameter checks have been ignored because the valid value for parameter 'trise' could not be found in 'I0.R2.CS0'.
    WARNING (CMI-2943): Parameter checks have been ignored because the valid value for parameter 'trise' could not be found in 'I0.C3.C1'.
        Further occurrences of this warning will be suppressed.

Convergence achieved in 12 iterations.
DC simulation time: CPU = 2.761 ms, elapsed = 2.76208 ms.
Important parameter values:
    start = 0 s
    outputstart = 0 s
    stop = 50 s
    step = 50 ms
    maxstep = 500 ms
    ic = all
    useprevic = no
    skipdc = no
    reltol = 10e-06
    abstol(V) = 1 uV
    abstol(I) = 1 pA
    temp = 85 C
    tnom = 27 C
    tempeffects = all
    errpreset = conservative
    method = gear2only
    lteratio = 10
    relref = alllocal
    cmin = 0 F
    gmin = 1 pS
    rabsshort = 1 mOhm


Notice from spectre during transient analysis `tran', during Monte Carlo analysis `mc1'.
    Multithreading is disabled due to the size of the design being too small.


Output and IC/nodeset summary:
                 save   8       (current)
                 save   87      (voltage)

    tran: time = 1.746 s     (3.49 %), step = 500 ms          (1 %)
    tran: time = 4.246 s     (8.49 %), step = 500 ms          (1 %)
    tran: time = 6.746 s     (13.5 %), step = 500 ms          (1 %)
    tran: time = 9.246 s     (18.5 %), step = 500 ms          (1 %)
    tran: time = 11.75 s     (23.5 %), step = 500 ms          (1 %)
    tran: time = 14.25 s     (28.5 %), step = 500 ms          (1 %)
    tran: time = 16.75 s     (33.5 %), step = 500 ms          (1 %)
    tran: time = 19.25 s     (38.5 %), step = 500 ms          (1 %)
    tran: time = 21.75 s     (43.5 %), step = 500 ms          (1 %)
    tran: time = 24.25 s     (48.5 %), step = 500 ms          (1 %)
    tran: time = 26.75 s     (53.5 %), step = 500 ms          (1 %)
    tran: time = 29.25 s     (58.5 %), step = 500 ms          (1 %)
    tran: time = 31.75 s     (63.5 %), step = 500 ms          (1 %)
    tran: time = 34.25 s     (68.5 %), step = 500 ms          (1 %)
    tran: time = 36.75 s     (73.5 %), step = 500 ms          (1 %)
    tran: time = 39.25 s     (78.5 %), step = 500 ms          (1 %)
    tran: time = 41.75 s     (83.5 %), step = 500 ms          (1 %)
    tran: time = 44.25 s     (88.5 %), step = 500 ms          (1 %)
    tran: time = 46.75 s     (93.5 %), step = 500 ms          (1 %)
    tran: time = 49.25 s     (98.5 %), step = 500 ms          (1 %)
Number of accepted tran steps =             682

Maximum value achieved for any signal of each quantity: 
V: V(S<0>) = 3.3 V
I: I(V8:p) = 7.497 uA
Maximum value of each quantity, excluding Verilog-A modules or dangling current sources:
V: V(vout_filt) = 3.246 V
I: I(V8:p) = 7.497 uA

~~~~~~~~~~~~~~~~~~~~~~~~~~~~~~~~~
Post-Transient Simulation Summary
~~~~~~~~~~~~~~~~~~~~~~~~~~~~~~~~~
   -   To further speed up simulation, consider
          add ++aps on command line
   -   Non-default settings that could significantly slow down simulation
          errpreset = conservative, default moderate
          reltol = 10e-06, default 100e-06 (conservative)
~~~~~~~~~~~~~~~~~~~~~~~~~~~~~~~~~


During simulation, the CPU load for active processors is :
         0 (41.4 %)      1 (18.6 %)      2 (73.7 %)      3 (16.7 %)
         4 (17.1 %)      5 (9.7 %)       6 (38.0 %)      7 (29.2 %)
         8 (52.1 %)      9 (8.2 %)      10 (27.2 %)     11 (65.0 %)
        12 (16.6 %)     13 (22.8 %)     14 (34.9 %)     15 (24.9 %)
        16 (31.2 %)     17 (59.8 %)     18 (28.5 %)     19 (33.0 %)
        20 (17.1 %)     21 (17.8 %)     22 (29.4 %)     23 (25.8 %)
        24 (32.7 %)     25 (24.3 %)     26 (54.7 %)     27 (15.8 %)
        28 (57.6 %)     29 (40.6 %)     30 (12.1 %)     31 (8.9 %)
        32 (8.1 %)      33 (14.4 %)     34 (16.3 %)     35 (12.6 %)
        36 (22.7 %)     37 (23.5 %)     38 (9.6 %)      39 (30.2 %)
        40 (29.1 %)     41 (18.9 %)     42 (17.7 %)     43 (12.0 %)
        44 (22.6 %)     45 (31.7 %)     46 (100.0 %)    47 (22.9 %)
        Total: 1377.8%
Initial condition solution time: CPU = 2.805 ms, elapsed = 2.8069 ms.
Intrinsic tran analysis time:    CPU = 415.94 ms, elapsed = 417.534 ms.
Total time required for tran analysis `tran': CPU = 421.492 ms, elapsed = 423.652 ms, util. = 99.5%.
Time accumulated: CPU = 42.7326 s, elapsed = 44.5697 s.
Peak resident memory used = 214 Mbytes.


Notice from spectre during transient analysis `tran', during Monte Carlo analysis `mc1'.
    34 warnings suppressed.

finalTimeOP: writing operating point information to rawfile.

Opening the PSF file ../psf/mc1_separate/098/finalTimeOP.info ...
modelParameter: writing model parameter values to rawfile.

Opening the PSF file ../psf/mc1_separate/098/modelParameter.info ...
element: writing instance parameter values to rawfile.

Opening the PSF file ../psf/mc1_separate/098/element.info ...
outputParameter: writing output parameter values to rawfile.

Opening the PSF file ../psf/mc1_separate/098/outputParameter.info ...
designParamVals: writing netlist parameters to rawfile.

Opening the PSFASCII file ../psf/mc1_separate/098/designParamVals.info ...
primitives: writing primitives to rawfile.

Opening the PSFASCII file ../psf/mc1_separate/098/primitives.info.primitives ...
subckts: writing subcircuits to rawfile.

Opening the PSFASCII file ../psf/mc1_separate/098/subckts.info.subckts ...
    mc1: iteration = 98            (98 %), step = 1            (1.01 %)
99  98.99% 

*****************************************************************************************
* 
* INFO: AMS_processOption = C35B4C3
* 
* INFO: Valid Modules  PIP VG5 HIRES
* 
*****************************************************************************************


Notice from spectre during Monte Carlo analysis `mc1'.
    V8: `period' has the unusually large value of 100 s.


***********************************************
Transient Analysis `tran': time = (0 s -> 50 s)
***********************************************

Opening the PSF file ../psf/mc1_separate/099/tran.tran.tran ...

Warning from spectre during check, during IC analysis, during transient analysis `tran', during Monte Carlo analysis `mc1'.
    WARNING (CMI-2943): Parameter checks have been ignored because the valid value for parameter 'trise' could not be found in 'C1'.
    WARNING (CMI-2943): Parameter checks have been ignored because the valid value for parameter 'trise' could not be found in 'I0.R2.CM'.
    WARNING (CMI-2943): Parameter checks have been ignored because the valid value for parameter 'trise' could not be found in 'I0.R2.CS1'.
    WARNING (CMI-2943): Parameter checks have been ignored because the valid value for parameter 'trise' could not be found in 'I0.R2.CS0'.
    WARNING (CMI-2943): Parameter checks have been ignored because the valid value for parameter 'trise' could not be found in 'I0.C3.C1'.
        Further occurrences of this warning will be suppressed.

Convergence achieved in 12 iterations.
DC simulation time: CPU = 2.607 ms, elapsed = 2.60687 ms.
Important parameter values:
    start = 0 s
    outputstart = 0 s
    stop = 50 s
    step = 50 ms
    maxstep = 500 ms
    ic = all
    useprevic = no
    skipdc = no
    reltol = 10e-06
    abstol(V) = 1 uV
    abstol(I) = 1 pA
    temp = 85 C
    tnom = 27 C
    tempeffects = all
    errpreset = conservative
    method = gear2only
    lteratio = 10
    relref = alllocal
    cmin = 0 F
    gmin = 1 pS
    rabsshort = 1 mOhm


Notice from spectre during transient analysis `tran', during Monte Carlo analysis `mc1'.
    Multithreading is disabled due to the size of the design being too small.


Output and IC/nodeset summary:
                 save   8       (current)
                 save   87      (voltage)

    tran: time = 1.664 s     (3.33 %), step = 500 ms          (1 %)
    tran: time = 4.164 s     (8.33 %), step = 500 ms          (1 %)
    tran: time = 6.664 s     (13.3 %), step = 500 ms          (1 %)
    tran: time = 9.164 s     (18.3 %), step = 500 ms          (1 %)
    tran: time = 11.66 s     (23.3 %), step = 500 ms          (1 %)
    tran: time = 14.16 s     (28.3 %), step = 500 ms          (1 %)
    tran: time = 16.66 s     (33.3 %), step = 500 ms          (1 %)
    tran: time = 19.16 s     (38.3 %), step = 500 ms          (1 %)
    tran: time = 21.66 s     (43.3 %), step = 500 ms          (1 %)
    tran: time = 24.16 s     (48.3 %), step = 500 ms          (1 %)
    tran: time = 26.66 s     (53.3 %), step = 500 ms          (1 %)
    tran: time = 29.16 s     (58.3 %), step = 500 ms          (1 %)
    tran: time = 31.66 s     (63.3 %), step = 500 ms          (1 %)
    tran: time = 34.16 s     (68.3 %), step = 500 ms          (1 %)
    tran: time = 36.66 s     (73.3 %), step = 500 ms          (1 %)
    tran: time = 39.16 s     (78.3 %), step = 500 ms          (1 %)
    tran: time = 41.66 s     (83.3 %), step = 500 ms          (1 %)
    tran: time = 44.16 s     (88.3 %), step = 500 ms          (1 %)
    tran: time = 46.66 s     (93.3 %), step = 500 ms          (1 %)
    tran: time = 49.16 s     (98.3 %), step = 500 ms          (1 %)
Number of accepted tran steps =             680

Maximum value achieved for any signal of each quantity: 
V: V(S<0>) = 3.3 V
I: I(V8:p) = 7.43 uA
Maximum value of each quantity, excluding Verilog-A modules or dangling current sources:
V: V(vout_filt) = 3.231 V
I: I(V8:p) = 7.43 uA

~~~~~~~~~~~~~~~~~~~~~~~~~~~~~~~~~
Post-Transient Simulation Summary
~~~~~~~~~~~~~~~~~~~~~~~~~~~~~~~~~
   -   To further speed up simulation, consider
          add ++aps on command line
   -   Non-default settings that could significantly slow down simulation
          errpreset = conservative, default moderate
          reltol = 10e-06, default 100e-06 (conservative)
~~~~~~~~~~~~~~~~~~~~~~~~~~~~~~~~~


During simulation, the CPU load for active processors is :
         0 (41.0 %)      1 (18.4 %)      2 (73.9 %)      3 (16.6 %)
         4 (16.9 %)      5 (9.6 %)       6 (37.6 %)      7 (28.9 %)
         8 (51.6 %)      9 (8.3 %)      10 (27.0 %)     11 (64.6 %)
        12 (16.4 %)     13 (22.6 %)     14 (34.5 %)     15 (24.7 %)
        16 (31.0 %)     17 (60.1 %)     18 (28.3 %)     19 (33.7 %)
        20 (17.0 %)     21 (17.6 %)     22 (29.1 %)     23 (25.5 %)
        24 (32.5 %)     25 (24.1 %)     26 (54.2 %)     27 (15.7 %)
        28 (57.1 %)     29 (40.2 %)     30 (12.0 %)     31 (8.9 %)
        32 (8.0 %)      33 (14.4 %)     34 (16.2 %)     35 (12.5 %)
        36 (22.6 %)     37 (23.4 %)     38 (9.5 %)      39 (29.9 %)
        40 (28.8 %)     41 (18.8 %)     42 (17.7 %)     43 (11.9 %)
        44 (22.4 %)     45 (31.4 %)     46 (100.0 %)    47 (22.7 %)
        Total: 1369.8%
Initial condition solution time: CPU = 2.651 ms, elapsed = 2.65288 ms.
Intrinsic tran analysis time:    CPU = 415.689 ms, elapsed = 417.489 ms.
Total time required for tran analysis `tran': CPU = 420.795 ms, elapsed = 423.137 ms, util. = 99.4%.
Time accumulated: CPU = 43.1956 s, elapsed = 45.0462 s.
Peak resident memory used = 214 Mbytes.


Notice from spectre during transient analysis `tran', during Monte Carlo analysis `mc1'.
    34 warnings suppressed.

finalTimeOP: writing operating point information to rawfile.

Opening the PSF file ../psf/mc1_separate/099/finalTimeOP.info ...
modelParameter: writing model parameter values to rawfile.

Opening the PSF file ../psf/mc1_separate/099/modelParameter.info ...
element: writing instance parameter values to rawfile.

Opening the PSF file ../psf/mc1_separate/099/element.info ...
outputParameter: writing output parameter values to rawfile.

Opening the PSF file ../psf/mc1_separate/099/outputParameter.info ...
designParamVals: writing netlist parameters to rawfile.

Opening the PSFASCII file ../psf/mc1_separate/099/designParamVals.info ...
primitives: writing primitives to rawfile.

Opening the PSFASCII file ../psf/mc1_separate/099/primitives.info.primitives ...
subckts: writing subcircuits to rawfile.

Opening the PSFASCII file ../psf/mc1_separate/099/subckts.info.subckts ...
    mc1: iteration = 99            (99 %), step = 1            (1.01 %)
100 100.00% 

*****************************************************************************************
* 
* INFO: AMS_processOption = C35B4C3
* 
* INFO: Valid Modules  PIP VG5 HIRES
* 
*****************************************************************************************


Notice from spectre during Monte Carlo analysis `mc1'.
    V8: `period' has the unusually large value of 100 s.


***********************************************
Transient Analysis `tran': time = (0 s -> 50 s)
***********************************************

Opening the PSF file ../psf/mc1_separate/100/tran.tran.tran ...

Warning from spectre during check, during IC analysis, during transient analysis `tran', during Monte Carlo analysis `mc1'.
    WARNING (CMI-2943): Parameter checks have been ignored because the valid value for parameter 'trise' could not be found in 'C1'.
    WARNING (CMI-2943): Parameter checks have been ignored because the valid value for parameter 'trise' could not be found in 'I0.R2.CM'.
    WARNING (CMI-2943): Parameter checks have been ignored because the valid value for parameter 'trise' could not be found in 'I0.R2.CS1'.
    WARNING (CMI-2943): Parameter checks have been ignored because the valid value for parameter 'trise' could not be found in 'I0.R2.CS0'.
    WARNING (CMI-2943): Parameter checks have been ignored because the valid value for parameter 'trise' could not be found in 'I0.C3.C1'.
        Further occurrences of this warning will be suppressed.

Convergence achieved in 12 iterations.
DC simulation time: CPU = 2.523 ms, elapsed = 2.52414 ms.
Important parameter values:
    start = 0 s
    outputstart = 0 s
    stop = 50 s
    step = 50 ms
    maxstep = 500 ms
    ic = all
    useprevic = no
    skipdc = no
    reltol = 10e-06
    abstol(V) = 1 uV
    abstol(I) = 1 pA
    temp = 85 C
    tnom = 27 C
    tempeffects = all
    errpreset = conservative
    method = gear2only
    lteratio = 10
    relref = alllocal
    cmin = 0 F
    gmin = 1 pS
    rabsshort = 1 mOhm


Notice from spectre during transient analysis `tran', during Monte Carlo analysis `mc1'.
    Multithreading is disabled due to the size of the design being too small.


Output and IC/nodeset summary:
                 save   8       (current)
                 save   87      (voltage)

    tran: time = 1.642 s     (3.28 %), step = 500 ms          (1 %)
    tran: time = 4.142 s     (8.28 %), step = 500 ms          (1 %)
    tran: time = 6.642 s     (13.3 %), step = 500 ms          (1 %)
    tran: time = 9.142 s     (18.3 %), step = 500 ms          (1 %)
    tran: time = 11.64 s     (23.3 %), step = 500 ms          (1 %)
    tran: time = 14.14 s     (28.3 %), step = 500 ms          (1 %)
    tran: time = 16.64 s     (33.3 %), step = 500 ms          (1 %)
    tran: time = 19.14 s     (38.3 %), step = 500 ms          (1 %)
    tran: time = 21.64 s     (43.3 %), step = 500 ms          (1 %)
    tran: time = 24.14 s     (48.3 %), step = 500 ms          (1 %)
    tran: time = 26.64 s     (53.3 %), step = 500 ms          (1 %)
    tran: time = 29.14 s     (58.3 %), step = 500 ms          (1 %)
    tran: time = 31.64 s     (63.3 %), step = 500 ms          (1 %)
    tran: time = 34.14 s     (68.3 %), step = 500 ms          (1 %)
    tran: time = 36.64 s     (73.3 %), step = 500 ms          (1 %)
    tran: time = 39.14 s     (78.3 %), step = 500 ms          (1 %)
    tran: time = 41.64 s     (83.3 %), step = 500 ms          (1 %)
    tran: time = 44.14 s     (88.3 %), step = 500 ms          (1 %)
    tran: time = 46.64 s     (93.3 %), step = 500 ms          (1 %)
    tran: time = 49.14 s     (98.3 %), step = 500 ms          (1 %)
Number of accepted tran steps =             681

Maximum value achieved for any signal of each quantity: 
V: V(S<0>) = 3.3 V
I: I(V8:p) = 7.819 uA
Maximum value of each quantity, excluding Verilog-A modules or dangling current sources:
V: V(vout_filt) = 3.233 V
I: I(V8:p) = 7.819 uA

~~~~~~~~~~~~~~~~~~~~~~~~~~~~~~~~~
Post-Transient Simulation Summary
~~~~~~~~~~~~~~~~~~~~~~~~~~~~~~~~~
   -   To further speed up simulation, consider
          add ++aps on command line
   -   Non-default settings that could significantly slow down simulation
          errpreset = conservative, default moderate
          reltol = 10e-06, default 100e-06 (conservative)
~~~~~~~~~~~~~~~~~~~~~~~~~~~~~~~~~


During simulation, the CPU load for active processors is :
         0 (40.6 %)      1 (18.2 %)      2 (74.2 %)      3 (16.4 %)
         4 (16.8 %)      5 (9.5 %)       6 (37.3 %)      7 (28.6 %)
         8 (51.1 %)      9 (8.4 %)      10 (26.9 %)     11 (64.1 %)
        12 (16.3 %)     13 (22.3 %)     14 (34.4 %)     15 (24.5 %)
        16 (31.0 %)     17 (60.5 %)     18 (28.0 %)     19 (33.7 %)
        20 (16.8 %)     21 (17.5 %)     22 (28.8 %)     23 (25.3 %)
        24 (32.2 %)     25 (23.9 %)     26 (53.7 %)     27 (15.6 %)
        28 (56.5 %)     29 (40.3 %)     30 (12.0 %)     31 (8.9 %)
        32 (8.1 %)      33 (14.3 %)     34 (16.1 %)     35 (12.4 %)
        36 (22.6 %)     37 (23.4 %)     38 (9.4 %)      39 (29.6 %)
        40 (28.6 %)     41 (18.6 %)     42 (17.5 %)     43 (11.8 %)
        44 (22.2 %)     45 (31.1 %)     46 (100.0 %)    47 (22.5 %)
        Total: 1362.6%
Initial condition solution time: CPU = 2.573 ms, elapsed = 2.57492 ms.
Intrinsic tran analysis time:    CPU = 415.505 ms, elapsed = 417.397 ms.
Total time required for tran analysis `tran': CPU = 420.652 ms, elapsed = 423.238 ms, util. = 99.4%.
Time accumulated: CPU = 43.6579 s, elapsed = 45.5217 s.
Peak resident memory used = 214 Mbytes.


Notice from spectre during transient analysis `tran', during Monte Carlo analysis `mc1'.
    34 warnings suppressed.

finalTimeOP: writing operating point information to rawfile.

Opening the PSF file ../psf/mc1_separate/100/finalTimeOP.info ...
modelParameter: writing model parameter values to rawfile.

Opening the PSF file ../psf/mc1_separate/100/modelParameter.info ...
element: writing instance parameter values to rawfile.

Opening the PSF file ../psf/mc1_separate/100/element.info ...
outputParameter: writing output parameter values to rawfile.

Opening the PSF file ../psf/mc1_separate/100/outputParameter.info ...
designParamVals: writing netlist parameters to rawfile.

Opening the PSFASCII file ../psf/mc1_separate/100/designParamVals.info ...
primitives: writing primitives to rawfile.

Opening the PSFASCII file ../psf/mc1_separate/100/primitives.info.primitives ...
subckts: writing subcircuits to rawfile.

Opening the PSFASCII file ../psf/mc1_separate/100/subckts.info.subckts ...
    mc1: iteration = 100          (100 %), step = 1            (1.01 %)
Total time required for montecarlo analysis `mc1': CPU = 43.2668 s, elapsed = 44.5375 s, util. = 97.1%.
Time accumulated: CPU = 43.6861 s, elapsed = 45.5614 s.
Peak resident memory used = 214 Mbytes.

Licensing Information:
Lic Summary:
[16:54:18.225778] Cdslmd servers:3000@lic08.ug.kth.se:29000@lic06.ug.kth.se
[16:54:18.225826] Feature usage summary:
[16:54:18.225827] Virtuoso_Multi_mode_Simulation


Aggregate audit (4:54:18 PM, Wed Apr 15, 2026):
Time used: CPU = 43.7 s, elapsed = 45.6 s, util. = 95.9%.
Time spent in licensing: elapsed = 49.2 ms.
Peak memory used = 215 Mbytes.
Simulation started at: 4:53:32 PM, Wed Apr 15, 2026, ended at: 4:54:18 PM, Wed Apr 15, 2026, with elapsed time (wall clock): 45.6 s.
spectre completes with 0 errors, 522 warnings, and 310 notices.
