
Spectre (R) Circuit Simulator
Version 24.1.0.288.isr5 64bit -- 3 Apr 2025
Copyright (C) 1989-2025 Cadence Design Systems, Inc. All rights reserved worldwide. Cadence and Spectre are registered trademarks of Cadence Design Systems, Inc. All others are the property of their respective holders.

Includes RSA BSAFE(R) Cryptographic or Security Protocol Software from RSA Security, Inc.

User: davidevi   Host: il2244vt26_davidevi   HostID: 11AC2C00   PID: 1065930
Memory  available: 3.0345 TB  physical: 3.2467 TB
Linux   : Rocky Linux release 8.10 (Green Obsidian)
CPU Type: Intel(R) Xeon(R) CPU E7-8857 v2 @ 3.00GHz
        Socket: Processors [Frequency]
        0:       0 [2999.9],  1 [1200.0],  2 [1200.0],  3 [1200.0],  4 [1200.0]
                 5 [3600.0],  6 [2999.9],  7 [2300.0],  8 [3400.0],  9 [3600.0]
                10 [1200.0], 11 [2999.9]
        1:      12 [1200.0], 13 [2999.9], 14 [3600.0], 15 [2400.0], 16 [1200.0]
                17 [1200.0], 18 [2999.9], 19 [1200.0], 20 [3000.0], 21 [3500.0]
                22 [2985.1], 23 [1200.0]
        2:      24 [3600.0], 25 [3600.0], 26 [2999.9], 27 [3300.0], 28 [2999.9]
                29 [3600.0], 30 [2600.0], 31 [2999.9], 32 [1200.0], 33 [1200.0]
                34 [1200.0], 35 [1200.0]
        3:      36 [3600.0], 37 [3600.0], 38 [3500.0], 39 [2500.0], 40 [2999.9]
                41 [3000.0], 42 [3600.0], 43 [2999.9], 44 [3600.0], 45 [2600.0]
                46 [2600.0], 47 [2600.0]
        
System load averages (1min, 5min, 15min) : 23.3 %, 25.5 %, 22.1 %
HPC is enabled


Simulating `input.scs' on il2244vt26_davidevi at 9:34:03 AM, Thur Apr 16, 2026 (process id: 1065930).
Current working directory: /home/davidevi/Desktop/myproject/Sim/VGA/VGA_1_wakeup_tb/adexl/results/data/MonteCarlo.1/2/wakeup/groupRunDataDir/netlist
Command line:
    /opt/tools/cadence/installs/SPECTRE241/tools/bin/spectre -64  \
        input.scs +escchars +log ../psf/spectre.out -format psfbin  \
        +rtsf -raw ../psf +aps +mt +lqtimeout 900 -maxw 5 -maxn 5  \
        +param /opt/pdk/ams/410/spectre/ams_range.lmts -env ade  \
        -ahdllibdir  \
        /home/davidevi/Desktop/myproject/Sim/VGA/VGA_1_wakeup_tb/adexl/results/data/MonteCarlo.1/sharedData/Job490/ahdl/input.ahdlSimDB  \
        +logstatus  \
        +adespetkn=0001089D13A302B663E41FB550AF0DF415A679A322D5069144BF588C12F604E07EF416DC01A319B562BB63D350D9169045A352A93BF438AB55D361DD74C94F927DE079D15D9175FF34986BDD0AF002BA50FD7FD707E002A700AC1C821DF743EA0EAF79D118F874D3349879D118F874D334981031B5F1D9DA5D7800003686

Simulation Id: bCotJ3aKLxWpQtIx
Licensing Information:
[09:34:03.121754] Configured Lic search path (24.01-s002): 3000@lic08.ug.kth.se:29000@lic06.ug.kth.se

Licensing Information:
[09:34:03.216744] Periodic Lic check successful

Loading /opt/tools/cadence/installs/SPECTRE241/tools.lnx86/cmi/lib/64bit/5.0/libinfineon_sh.so ...
Loading /opt/tools/cadence/installs/SPECTRE241/tools.lnx86/cmi/lib/64bit/5.0/libphilips_I_sh.so ...
Loading /opt/tools/cadence/installs/SPECTRE241/tools.lnx86/cmi/lib/64bit/5.0/libphilips_sh.so ...
Loading /opt/tools/cadence/installs/SPECTRE241/tools.lnx86/cmi/lib/64bit/5.0/libsparam_sh.so ...
Loading /opt/tools/cadence/installs/SPECTRE241/tools.lnx86/cmi/lib/64bit/5.0/libstmodels_sh.so ...

Warning from spectre.
    WARNING (SPECTRE-691): This CPU processor does not support x86 advanced vector extensions instructions. This may affect math operations and slow down the simulation.

Reading file:  /home/davidevi/Desktop/myproject/Sim/VGA/VGA_1_wakeup_tb/adexl/results/data/MonteCarlo.1/2/wakeup/groupRunDataDir/netlist/input.scs
Reading file:  /opt/pdk/ams/410/spectre/ams_range.lmts

Warning from spectre during read of parameter soft limits file `/opt/pdk/ams/410/spectre/ams_range.lmts', during circuit read-in.
    WARNING (SPECTRE-8360): line 1511: `ac' is an undefined primitive device.
    WARNING (SPECTRE-8360): line 1512: `ac' is an undefined primitive device.
    WARNING (SPECTRE-8360): line 1513: `ac' is an undefined primitive device.
    WARNING (SPECTRE-8360): line 1514: `ac' is an undefined primitive device.
    WARNING (SPECTRE-8360): line 1515: `ac' is an undefined primitive device.
        Further occurrences of this warning will be suppressed.

Reading file:  /opt/tools/cadence/installs/SPECTRE241/tools.lnx86/spectre/etc/configs/spectre.cfg
Reading file:  /opt/pdk/ams/410/spectre/c35/soac/soac.scs
Reading file:  /opt/pdk/ams/410/spectre/c35/soac/processOption.scs
Reading file:  /opt/pdk/ams/410/spectre/c35/soac/process.scs
Reading file:  /opt/pdk/ams/410/spectre/c35/soac/soac.va

Warning from spectre during AHDL read-in.
    WARNING (VACOMP-2435): The environment variable CDS_AHDLCMI_ENABLE is no longer supported. Therefore, the simulator will use the default compiled C code flow.

Reading link:  /opt/tools/cadence/installs/SPECTRE241/tools.lnx86/spectre/etc/ahdl/constants.h
Reading file:  /opt/tools/cadence/installs/SPECTRE241/tools.lnx86/spectre/etc/ahdl/constants.vams
Reading link:  /opt/tools/cadence/installs/SPECTRE241/tools.lnx86/spectre/etc/ahdl/discipline.h
Reading file:  /opt/tools/cadence/installs/SPECTRE241/tools.lnx86/spectre/etc/ahdl/disciplines.vams
Reading file:  /opt/pdk/ams/410/spectre/c35/processOption/C35B4C3.scs
Reading file:  /opt/pdk/ams/410/spectre/c35/soac/cmos53.scs
Reading file:  /opt/pdk/ams/410/spectre/c35/soac/res.scs
Reading file:  /opt/pdk/ams/410/spectre/c35/soac/cap.scs
Reading file:  /opt/pdk/ams/410/spectre/c35/soac/bip.scs
Reading file:  /opt/pdk/ams/410/spectre/c35/soac/ind.scs
Reading file:  /opt/pdk/ams/410/spectre/c35/soac/esddiode.scs
Time for NDB Parsing: CPU = 178.286 ms, elapsed = 345.579 ms.
Time accumulated: CPU = 387.769 ms, elapsed = 345.581 ms.
Peak resident memory used = 175 Mbytes.

Existing shared object for module modn_ahdl is up to date.
Installed compiled interface for modn_ahdl.
Existing shared object for module modp_ahdl is up to date.
Installed compiled interface for modp_ahdl.
Existing shared object for module cpoly_ahdl is up to date.
Installed compiled interface for cpoly_ahdl.
Existing shared object for module rpolyh_ahdl is up to date.
Installed compiled interface for rpolyh_ahdl.
Existing shared object for module bsource_19b458 is up to date.
Installed compiled interface for bsource_19b458.
Time for Elaboration: CPU = 60.114 ms, elapsed = 62.4099 ms.
Time accumulated: CPU = 448.013 ms, elapsed = 408.12 ms.
Peak resident memory used = 189 Mbytes.


Notice from spectre during hierarchy flattening.
    The value 'psf' specified for the 'checklimitdest' option will no longer be supported in future releases. Use 'spectre -h' to see other recommended values for the 'checklimitdest' option.


*****************************************************************************************
* 
* INFO: AMS_processOption = C35B4C3
* 
* INFO: Valid Modules  PIP VG5 HIRES
* 
*****************************************************************************************


Notice from spectre during hierarchy flattening.
    V8: `period' has the unusually large value of 100 s.


Time for EDB Visiting: CPU = 8.754 ms, elapsed = 8.75497 ms.
Time accumulated: CPU = 456.898 ms, elapsed = 417.004 ms.
Peak resident memory used = 191 Mbytes.

Loading /opt/tools/cadence/installs/SPECTRE241/tools.lnx86/mdl/lib/64bit/libSpectreEH_sh.so ...

Warning from spectre during initial setup.
    WARNING (SPECTRE-16460): SOAC_cvarm_vspsub:Specified subcircuit master `cvarm' was not found.
    WARNING (SPECTRE-16462): SOAC_cvarm_vspsub:Error in specification of subcircuit master. Assert is ignored.
    WARNING (SPECTRE-16460): SOAC_cvarm_vbs:Specified subcircuit master `cvarm' was not found.
    WARNING (SPECTRE-16462): SOAC_cvarm_vbs:Error in specification of subcircuit master. Assert is ignored.
    WARNING (SPECTRE-16460): SOAC_cvarm_vgb:Specified subcircuit master `cvarm' was not found.
    WARNING (SPECTRE-16462): SOAC_cvarm_vgb:Error in specification of subcircuit master. Assert is ignored.
    WARNING (SPECTRE-16460): SOAC_cvart_vspsub:Specified subcircuit master `cvart' was not found.
    WARNING (SPECTRE-16462): SOAC_cvart_vspsub:Error in specification of subcircuit master. Assert is ignored.
    WARNING (SPECTRE-16460): SOAC_cvart_vbs:Specified subcircuit master `cvart' was not found.
        Further occurrences of this warning will be suppressed.
    WARNING (SPECTRE-16462): SOAC_cvart_vbs:Error in specification of subcircuit master. Assert is ignored.
        Further occurrences of this warning will be suppressed.
Notice from spectre during topology check.
    Only one connection to the following 54 nodes:
        I0.MN6.psub!
        I0.MN5.psub!
        I0.MN4.psub!
        I0.MN3.psub!
        I0.MN2.psub!
        Further occurrences of this notice will be suppressed.
Notice from spectre during initial setup.
    Multithreading is disabled due to the size of the design being too small.


Netlist title:
        // Point Netlist Generated on: Apr 16 09:34:02 2026


Global user options:
         psfversion = 1.4.0
            vabstol = 1e-06
            iabstol = 1e-12
               temp = -40
           homotopy = 5
              limit = delta
         compatible = spice2
               gmin = 1e-12
             rforce = 1
           maxnotes = 5
           maxwarns = 5
             digits = 5
               cols = 80
             pivrel = 0.001
           sensfile = ../psf/sens.output
     checklimitdest = psf
     enable_pre_ver = yes
      ignorezerovar = yes
               save = allpub
             reltol = 0.0001
               tnom = 27
             scalem = 1
              scale = 1

Scoped user options:

Circuit inventory:
              nodes 88
            bsim3v3 35    
     bsource_19b458 2     
          capacitor 38    
         cpoly_ahdl 17    
            isource 1     
          modn_ahdl 19    
          modp_ahdl 16    
           resistor 1     
        rpolyh_ahdl 2     
            vsource 8     

Analysis and control statement inventory:
               info 7     
         montecarlo 1     
               tran 1     

Output statements:
             .probe 0     
           .measure 0     
               save 0     

Design checks inventory:
          paramtest 55    
             assert 175   


Notice from spectre during initial setup.
    APS enabled.
    1 notice suppressed.
    72 warnings suppressed.

Time for parsing: CPU = 19.03 ms, elapsed = 619.129 ms.
Time accumulated: CPU = 476.034 ms, elapsed = 1.03624 s.
Peak resident memory used = 198 Mbytes.

~~~~~~~~~~~~~~~~~~~~~~
Pre-Simulation Summary
~~~~~~~~~~~~~~~~~~~~~~
   -   (APS) Multi-threading. The recommended number of threads is 1, consider adding +mt=1 on command line.
~~~~~~~~~~~~~~~~~~~~~~

**************************************************
Monte Carlo Analysis `mc1': iteration = (1 -> 100)
**************************************************
Important parameter values:
    seed = 12345
    sampling = lds
    variations = all
    firstrun = 1
    numruns = 100
    nullmfactorcorrelation = no
    donominal = yes
    method = standard

**** Performing nominal run for `mc1'

Notice from spectre during transient analysis `tran', during Monte Carlo analysis `mc1'.
    No checklimit analysis defined for asserts. A default checklimit analysis 'SpectreChecklimitAnal' has been created with all asserts enabled.


***********************************************
Transient Analysis `tran': time = (0 s -> 50 s)
***********************************************

Warning from spectre during check, during IC analysis, during transient analysis `tran', during Monte Carlo analysis `mc1'.
    WARNING (CMI-2943): Parameter checks have been ignored because the valid value for parameter 'trise' could not be found in 'C1'.
    WARNING (CMI-2943): Parameter checks have been ignored because the valid value for parameter 'trise' could not be found in 'I0.R2.CM'.
    WARNING (CMI-2943): Parameter checks have been ignored because the valid value for parameter 'trise' could not be found in 'I0.R2.CS1'.
    WARNING (CMI-2943): Parameter checks have been ignored because the valid value for parameter 'trise' could not be found in 'I0.R2.CS0'.
    WARNING (CMI-2943): Parameter checks have been ignored because the valid value for parameter 'trise' could not be found in 'I0.C3.C1'.
        Further occurrences of this warning will be suppressed.

Convergence achieved in 12 iterations.
DC simulation time: CPU = 3.026 ms, elapsed = 3.02601 ms.

Opening the PSF file ../psf/nom/tran.tran.tran ...
Important parameter values:
    start = 0 s
    outputstart = 0 s
    stop = 50 s
    step = 50 ms
    maxstep = 500 ms
    ic = all
    useprevic = no
    skipdc = no
    reltol = 10e-06
    abstol(V) = 1 uV
    abstol(I) = 1 pA
    temp = -40 C
    tnom = 27 C
    tempeffects = all
    errpreset = conservative
    method = gear2only
    lteratio = 10
    relref = alllocal
    cmin = 0 F
    gmin = 1 pS
    rabsshort = 1 mOhm


Notice from spectre during transient analysis `tran', during Monte Carlo analysis `mc1'.
    Multithreading is disabled due to the size of the design being too small.


Output and IC/nodeset summary:
                 save   8       (current)
                 save   87      (voltage)

    tran: time = 1.296 s     (2.59 %), step = 112.3 ms     (225 m%)
    tran: time = 3.836 s     (7.67 %), step = 295.9 ms     (592 m%)
    tran: time = 6.704 s     (13.4 %), step = 500 ms          (1 %)
    tran: time = 9.204 s     (18.4 %), step = 500 ms          (1 %)
    tran: time = 11.7 s      (23.4 %), step = 500 ms          (1 %)
    tran: time = 14.2 s      (28.4 %), step = 500 ms          (1 %)
    tran: time = 16.7 s      (33.4 %), step = 500 ms          (1 %)
    tran: time = 19.2 s      (38.4 %), step = 500 ms          (1 %)
    tran: time = 21.7 s      (43.4 %), step = 500 ms          (1 %)
    tran: time = 24.2 s      (48.4 %), step = 500 ms          (1 %)
    tran: time = 26.7 s      (53.4 %), step = 500 ms          (1 %)
    tran: time = 29.2 s      (58.4 %), step = 500 ms          (1 %)
    tran: time = 31.7 s      (63.4 %), step = 500 ms          (1 %)
    tran: time = 34.2 s      (68.4 %), step = 500 ms          (1 %)
    tran: time = 36.3 s      (72.6 %), step = 230.8 ms     (462 m%)
    tran: time = 38.89 s     (77.8 %), step = 140.2 ms     (280 m%)
    tran: time = 41.65 s     (83.3 %), step = 449.7 ms     (899 m%)
    tran: time = 44.07 s     (88.1 %), step = 500 ms          (1 %)
    tran: time = 46.57 s     (93.1 %), step = 500 ms          (1 %)
    tran: time = 49.07 s     (98.1 %), step = 500 ms          (1 %)
Number of accepted tran steps =             650

Maximum value achieved for any signal of each quantity: 
V: V(vout_filt) = 3.3 V
I: I(V8:p) = 6.462 uA

~~~~~~~~~~~~~~~~~~~~~~~~~~~~~~~~~
Post-Transient Simulation Summary
~~~~~~~~~~~~~~~~~~~~~~~~~~~~~~~~~
   -   To further speed up simulation, consider
          add ++aps on command line
   -   Non-default settings that could significantly slow down simulation
          errpreset = conservative, default moderate
          reltol = 10e-06, default 100e-06 (conservative)
~~~~~~~~~~~~~~~~~~~~~~~~~~~~~~~~~


During simulation, the CPU load for active processors is :
         0 (100.0 %)     1 (33.8 %)      2 (4.4 %)       3 (3.7 %)
         4 (6.6 %)       5 (3.0 %)       6 (14.0 %)      7 (38.0 %)
         8 (7.2 %)       9 (2.9 %)      10 (3.0 %)      11 (100.0 %)
        12 (39.3 %)     13 (97.8 %)     14 (37.5 %)     15 (3.7 %)
        16 (2.3 %)      17 (3.7 %)      18 (100.0 %)    19 (7.4 %)
        20 (14.7 %)     21 (9.6 %)      22 (3.8 %)      23 (1.5 %)
        24 (4.4 %)      25 (3.7 %)      26 (8.1 %)      27 (3.0 %)
        28 (11.1 %)     29 (1.5 %)      30 (91.2 %)     31 (21.9 %)
        32 (4.4 %)      33 (9.6 %)      35 (5.9 %)      36 (4.4 %)
        37 (2.2 %)      38 (35.5 %)     39 (9.0 %)      40 (100.0 %)
        41 (9.5 %)      42 (3.7 %)      43 (44.2 %)     44 (16.8 %)
        45 (12.6 %)     46 (2.2 %)      47 (7.4 %)      
        Total: 1050.8%
Initial condition solution time: CPU = 3.074 ms, elapsed = 3.07608 ms.
Intrinsic tran analysis time:    CPU = 395.271 ms, elapsed = 397.166 ms.
Total time required for tran analysis `tran': CPU = 482.77 ms, elapsed = 489.438 ms, util. = 98.6%.
Time accumulated: CPU = 986.871 ms, elapsed = 1.55517 s.
Peak resident memory used = 210 Mbytes.


Notice from spectre during transient analysis `tran', during Monte Carlo analysis `mc1'.
    34 warnings suppressed.

finalTimeOP: writing operating point information to rawfile.

Opening the PSF file ../psf/nom/finalTimeOP.info ...
modelParameter: writing model parameter values to rawfile.

Opening the PSF file ../psf/nom/modelParameter.info ...
element: writing instance parameter values to rawfile.

Opening the PSF file ../psf/nom/element.info ...
outputParameter: writing output parameter values to rawfile.

Opening the PSF file ../psf/nom/outputParameter.info ...
designParamVals: writing netlist parameters to rawfile.

Opening the PSFASCII file ../psf/nom/designParamVals.info ...
primitives: writing primitives to rawfile.

Opening the PSFASCII file ../psf/nom/primitives.info.primitives ...
subckts: writing subcircuits to rawfile.

Opening the PSFASCII file ../psf/nom/subckts.info.subckts ...
Opening iteration number and data-directory mapping file:  /home/davidevi/Desktop/myproject/Sim/VGA/VGA_1_wakeup_tb/adexl/results/data/MonteCarlo.1/2/wakeup/groupRunDataDir/netlist/../psf/mc1.mapping

Statistical parameters:
    Defined process parameters: 629
    Defined mismatch parameters (subckt based): 86
    Non-referenced mismatch parameters: 80
    Number of random variables: 718
    Gaussian truncation for process parameters: 4.00 sigma
    Gaussian truncation for mismatch parameters: 4.00 sigma


Opening the PSF file ../psf/mc1_tran.montecarlo ...

Opening the PSF file ../psf/mc1_finalTimeOP.montecarlo ...

Opening the PSF file ../psf/mc1_modelParameter.montecarlo ...

Opening the PSF file ../psf/mc1_element.montecarlo ...

Opening the PSF file ../psf/mc1_outputParameter.montecarlo ...

Opening the PSF file ../psf/mc1_designParamVals.montecarlo ...

Opening the PSF file ../psf/mc1_primitives.montecarlo ...

Opening the PSF file ../psf/mc1_subckts.montecarlo ...

**** Performing monte carlo loop for `mc1'

1   0.00% 

*****************************************************************************************
* 
* INFO: AMS_processOption = C35B4C3
* 
* INFO: Valid Modules  PIP VG5 HIRES
* 
*****************************************************************************************


Notice from spectre at iteration = 1 during Monte Carlo analysis `mc1'.
    V8: `period' has the unusually large value of 100 s.


***********************************************
Transient Analysis `tran': time = (0 s -> 50 s)
***********************************************

Opening the PSF file ../psf/mc1_separate/001/tran.tran.tran ...

Warning from spectre at iteration = 1 during check, during IC analysis, during transient analysis `tran', during Monte Carlo analysis `mc1'.
    WARNING (CMI-2943): Parameter checks have been ignored because the valid value for parameter 'trise' could not be found in 'C1'.
    WARNING (CMI-2943): Parameter checks have been ignored because the valid value for parameter 'trise' could not be found in 'I0.R2.CM'.
    WARNING (CMI-2943): Parameter checks have been ignored because the valid value for parameter 'trise' could not be found in 'I0.R2.CS1'.
    WARNING (CMI-2943): Parameter checks have been ignored because the valid value for parameter 'trise' could not be found in 'I0.R2.CS0'.
    WARNING (CMI-2943): Parameter checks have been ignored because the valid value for parameter 'trise' could not be found in 'I0.C3.C1'.
        Further occurrences of this warning will be suppressed.

Convergence achieved in 12 iterations.
DC simulation time: CPU = 2.911 ms, elapsed = 2.91204 ms.
Important parameter values:
    start = 0 s
    outputstart = 0 s
    stop = 50 s
    step = 50 ms
    maxstep = 500 ms
    ic = all
    useprevic = no
    skipdc = no
    reltol = 10e-06
    abstol(V) = 1 uV
    abstol(I) = 1 pA
    temp = -40 C
    tnom = 27 C
    tempeffects = all
    errpreset = conservative
    method = gear2only
    lteratio = 10
    relref = alllocal
    cmin = 0 F
    gmin = 1 pS
    rabsshort = 1 mOhm


Notice from spectre at iteration = 1 during transient analysis `tran', during Monte Carlo analysis `mc1'.
    Multithreading is disabled due to the size of the design being too small.


Output and IC/nodeset summary:
                 save   8       (current)
                 save   87      (voltage)

    tran: time = 1.274 s     (2.55 %), step = 120.4 ms     (241 m%)
    tran: time = 3.983 s     (7.97 %), step = 314.9 ms     (630 m%)
    tran: time = 6.493 s       (13 %), step = 500 ms          (1 %)
    tran: time = 8.993 s       (18 %), step = 500 ms          (1 %)
    tran: time = 11.49 s       (23 %), step = 500 ms          (1 %)
    tran: time = 13.99 s       (28 %), step = 500 ms          (1 %)
    tran: time = 16.49 s       (33 %), step = 500 ms          (1 %)
    tran: time = 18.99 s       (38 %), step = 500 ms          (1 %)
    tran: time = 21.49 s       (43 %), step = 500 ms          (1 %)
    tran: time = 23.99 s       (48 %), step = 500 ms          (1 %)
    tran: time = 26.49 s       (53 %), step = 500 ms          (1 %)
    tran: time = 28.99 s       (58 %), step = 500 ms          (1 %)
    tran: time = 31.49 s       (63 %), step = 500 ms          (1 %)
    tran: time = 33.99 s       (68 %), step = 500 ms          (1 %)
    tran: time = 36.38 s     (72.8 %), step = 415.1 ms     (830 m%)
    tran: time = 38.75 s     (77.5 %), step = 1.562 ms    (3.12 m%)
    tran: time = 41.67 s     (83.3 %), step = 427.1 ms     (854 m%)
    tran: time = 43.94 s     (87.9 %), step = 476.5 ms     (953 m%)
    tran: time = 46.43 s     (92.9 %), step = 500 ms          (1 %)
    tran: time = 48.93 s     (97.9 %), step = 500 ms          (1 %)
Number of accepted tran steps =             649

Maximum value achieved for any signal of each quantity: 
V: V(vout_filt) = 3.3 V
I: I(V8:p) = 6.355 uA

~~~~~~~~~~~~~~~~~~~~~~~~~~~~~~~~~
Post-Transient Simulation Summary
~~~~~~~~~~~~~~~~~~~~~~~~~~~~~~~~~
   -   To further speed up simulation, consider
          add ++aps on command line
   -   Non-default settings that could significantly slow down simulation
          errpreset = conservative, default moderate
          reltol = 10e-06, default 100e-06 (conservative)
~~~~~~~~~~~~~~~~~~~~~~~~~~~~~~~~~


During simulation, the CPU load for active processors is :
         0 (100.0 %)     1 (32.0 %)      2 (4.1 %)       3 (3.1 %)
         4 (5.1 %)       5 (3.1 %)       6 (10.2 %)      7 (55.8 %)
         8 (5.6 %)       9 (3.1 %)      10 (3.6 %)      11 (100.0 %)
        12 (29.4 %)     13 (85.6 %)     14 (29.6 %)     15 (4.1 %)
        16 (3.6 %)      17 (2.6 %)      18 (100.0 %)    19 (34.2 %)
        20 (13.1 %)     21 (13.3 %)     22 (3.6 %)      23 (14.3 %)
        24 (4.0 %)      25 (3.1 %)      26 (8.6 %)      27 (2.6 %)
        28 (8.2 %)      29 (1.5 %)      30 (92.9 %)     31 (15.7 %)
        32 (4.6 %)      33 (7.7 %)      34 (2.5 %)      35 (4.1 %)
        36 (18.7 %)     37 (6.2 %)      38 (25.4 %)     39 (6.7 %)
        40 (100.0 %)    41 (8.5 %)      42 (4.1 %)      43 (45.5 %)
        44 (12.2 %)     45 (13.2 %)     46 (2.1 %)      47 (7.1 %)
        Total: 1063.8%
Initial condition solution time: CPU = 2.979 ms, elapsed = 2.97999 ms.
Intrinsic tran analysis time:    CPU = 395.529 ms, elapsed = 397.647 ms.
Total time required for tran analysis `tran': CPU = 401.34 ms, elapsed = 404.024 ms, util. = 99.3%.
Time accumulated: CPU = 1.4757 s, elapsed = 2.06495 s.
Peak resident memory used = 213 Mbytes.


Notice from spectre during transient analysis `tran', during Monte Carlo analysis `mc1'.
    34 warnings suppressed.

finalTimeOP: writing operating point information to rawfile.

Opening the PSF file ../psf/mc1_separate/001/finalTimeOP.info ...
modelParameter: writing model parameter values to rawfile.

Opening the PSF file ../psf/mc1_separate/001/modelParameter.info ...
element: writing instance parameter values to rawfile.

Opening the PSF file ../psf/mc1_separate/001/element.info ...
outputParameter: writing output parameter values to rawfile.

Opening the PSF file ../psf/mc1_separate/001/outputParameter.info ...
designParamVals: writing netlist parameters to rawfile.

Opening the PSFASCII file ../psf/mc1_separate/001/designParamVals.info ...
primitives: writing primitives to rawfile.

Opening the PSFASCII file ../psf/mc1_separate/001/primitives.info.primitives ...
subckts: writing subcircuits to rawfile.

Opening the PSFASCII file ../psf/mc1_separate/001/subckts.info.subckts ...
2   1.01% 

*****************************************************************************************
* 
* INFO: AMS_processOption = C35B4C3
* 
* INFO: Valid Modules  PIP VG5 HIRES
* 
*****************************************************************************************


Notice from spectre during Monte Carlo analysis `mc1'.
    V8: `period' has the unusually large value of 100 s.


***********************************************
Transient Analysis `tran': time = (0 s -> 50 s)
***********************************************

Opening the PSF file ../psf/mc1_separate/002/tran.tran.tran ...

Warning from spectre during check, during IC analysis, during transient analysis `tran', during Monte Carlo analysis `mc1'.
    WARNING (CMI-2943): Parameter checks have been ignored because the valid value for parameter 'trise' could not be found in 'C1'.
    WARNING (CMI-2943): Parameter checks have been ignored because the valid value for parameter 'trise' could not be found in 'I0.R2.CM'.
    WARNING (CMI-2943): Parameter checks have been ignored because the valid value for parameter 'trise' could not be found in 'I0.R2.CS1'.
    WARNING (CMI-2943): Parameter checks have been ignored because the valid value for parameter 'trise' could not be found in 'I0.R2.CS0'.
    WARNING (CMI-2943): Parameter checks have been ignored because the valid value for parameter 'trise' could not be found in 'I0.C3.C1'.
        Further occurrences of this warning will be suppressed.

Convergence achieved in 12 iterations.
DC simulation time: CPU = 2.693 ms, elapsed = 2.69389 ms.
Important parameter values:
    start = 0 s
    outputstart = 0 s
    stop = 50 s
    step = 50 ms
    maxstep = 500 ms
    ic = all
    useprevic = no
    skipdc = no
    reltol = 10e-06
    abstol(V) = 1 uV
    abstol(I) = 1 pA
    temp = -40 C
    tnom = 27 C
    tempeffects = all
    errpreset = conservative
    method = gear2only
    lteratio = 10
    relref = alllocal
    cmin = 0 F
    gmin = 1 pS
    rabsshort = 1 mOhm


Notice from spectre during transient analysis `tran', during Monte Carlo analysis `mc1'.
    Multithreading is disabled due to the size of the design being too small.


Output and IC/nodeset summary:
                 save   8       (current)
                 save   87      (voltage)

    tran: time = 1.37 s      (2.74 %), step = 122.9 ms     (246 m%)
    tran: time = 3.825 s     (7.65 %), step = 299.6 ms     (599 m%)
    tran: time = 6.72 s      (13.4 %), step = 500 ms          (1 %)
    tran: time = 9.22 s      (18.4 %), step = 500 ms          (1 %)
    tran: time = 11.72 s     (23.4 %), step = 500 ms          (1 %)
    tran: time = 14.22 s     (28.4 %), step = 500 ms          (1 %)
    tran: time = 16.72 s     (33.4 %), step = 500 ms          (1 %)
    tran: time = 19.22 s     (38.4 %), step = 500 ms          (1 %)
    tran: time = 21.72 s     (43.4 %), step = 500 ms          (1 %)
    tran: time = 24.22 s     (48.4 %), step = 500 ms          (1 %)
    tran: time = 26.72 s     (53.4 %), step = 500 ms          (1 %)
    tran: time = 29.22 s     (58.4 %), step = 500 ms          (1 %)
    tran: time = 31.72 s     (63.4 %), step = 500 ms          (1 %)
    tran: time = 34.22 s     (68.4 %), step = 500 ms          (1 %)
    tran: time = 36.41 s     (72.8 %), step = 341.9 ms     (684 m%)
    tran: time = 38.8 s      (77.6 %), step = 47.42 ms    (94.8 m%)
    tran: time = 41.51 s       (83 %), step = 433.3 ms     (867 m%)
    tran: time = 43.82 s     (87.6 %), step = 486.6 ms     (973 m%)
    tran: time = 46.32 s     (92.6 %), step = 500 ms          (1 %)
    tran: time = 48.82 s     (97.6 %), step = 500 ms          (1 %)
Number of accepted tran steps =             650

Maximum value achieved for any signal of each quantity: 
V: V(vout_filt) = 3.3 V
I: I(V8:p) = 6.41 uA

~~~~~~~~~~~~~~~~~~~~~~~~~~~~~~~~~
Post-Transient Simulation Summary
~~~~~~~~~~~~~~~~~~~~~~~~~~~~~~~~~
   -   To further speed up simulation, consider
          add ++aps on command line
   -   Non-default settings that could significantly slow down simulation
          errpreset = conservative, default moderate
          reltol = 10e-06, default 100e-06 (conservative)
~~~~~~~~~~~~~~~~~~~~~~~~~~~~~~~~~


During simulation, the CPU load for active processors is :
         0 (100.0 %)     1 (43.3 %)      2 (4.5 %)       3 (3.7 %)
         4 (21.6 %)      5 (2.9 %)       6 (25.0 %)      7 (47.7 %)
         8 (4.9 %)       9 (3.3 %)      10 (4.1 %)      11 (100.0 %)
        12 (24.1 %)     13 (70.0 %)     14 (24.0 %)     15 (3.7 %)
        16 (3.7 %)      17 (2.9 %)      18 (100.0 %)    19 (46.5 %)
        20 (14.3 %)     21 (11.7 %)     22 (3.8 %)      23 (30.9 %)
        24 (3.7 %)      25 (3.3 %)      26 (7.0 %)      27 (2.5 %)
        28 (9.1 %)      29 (2.1 %)      30 (93.5 %)     31 (15.1 %)
        32 (4.6 %)      33 (7.0 %)      34 (3.3 %)      35 (4.1 %)
        36 (33.7 %)     37 (5.4 %)      38 (21.1 %)     39 (7.9 %)
        40 (100.0 %)    41 (7.3 %)      42 (3.3 %)      43 (37.6 %)
        44 (10.7 %)     45 (11.1 %)     46 (1.7 %)      47 (10.3 %)
        Total: 1102.3%
Initial condition solution time: CPU = 2.743 ms, elapsed = 2.74515 ms.
Intrinsic tran analysis time:    CPU = 403.55 ms, elapsed = 405.288 ms.
Total time required for tran analysis `tran': CPU = 409.03 ms, elapsed = 411.389 ms, util. = 99.4%.
Time accumulated: CPU = 1.92797 s, elapsed = 2.53325 s.
Peak resident memory used = 214 Mbytes.


Notice from spectre during transient analysis `tran', during Monte Carlo analysis `mc1'.
    34 warnings suppressed.

finalTimeOP: writing operating point information to rawfile.

Opening the PSF file ../psf/mc1_separate/002/finalTimeOP.info ...
modelParameter: writing model parameter values to rawfile.

Opening the PSF file ../psf/mc1_separate/002/modelParameter.info ...
element: writing instance parameter values to rawfile.

Opening the PSF file ../psf/mc1_separate/002/element.info ...
outputParameter: writing output parameter values to rawfile.

Opening the PSF file ../psf/mc1_separate/002/outputParameter.info ...
designParamVals: writing netlist parameters to rawfile.

Opening the PSFASCII file ../psf/mc1_separate/002/designParamVals.info ...
primitives: writing primitives to rawfile.

Opening the PSFASCII file ../psf/mc1_separate/002/primitives.info.primitives ...
subckts: writing subcircuits to rawfile.

Opening the PSFASCII file ../psf/mc1_separate/002/subckts.info.subckts ...
3   2.02% 

*****************************************************************************************
* 
* INFO: AMS_processOption = C35B4C3
* 
* INFO: Valid Modules  PIP VG5 HIRES
* 
*****************************************************************************************


Notice from spectre during Monte Carlo analysis `mc1'.
    V8: `period' has the unusually large value of 100 s.


***********************************************
Transient Analysis `tran': time = (0 s -> 50 s)
***********************************************

Opening the PSF file ../psf/mc1_separate/003/tran.tran.tran ...

Warning from spectre during check, during IC analysis, during transient analysis `tran', during Monte Carlo analysis `mc1'.
    WARNING (CMI-2943): Parameter checks have been ignored because the valid value for parameter 'trise' could not be found in 'C1'.
    WARNING (CMI-2943): Parameter checks have been ignored because the valid value for parameter 'trise' could not be found in 'I0.R2.CM'.
    WARNING (CMI-2943): Parameter checks have been ignored because the valid value for parameter 'trise' could not be found in 'I0.R2.CS1'.
    WARNING (CMI-2943): Parameter checks have been ignored because the valid value for parameter 'trise' could not be found in 'I0.R2.CS0'.
    WARNING (CMI-2943): Parameter checks have been ignored because the valid value for parameter 'trise' could not be found in 'I0.C3.C1'.
        Further occurrences of this warning will be suppressed.

Convergence achieved in 12 iterations.
DC simulation time: CPU = 2.668 ms, elapsed = 2.6691 ms.
Important parameter values:
    start = 0 s
    outputstart = 0 s
    stop = 50 s
    step = 50 ms
    maxstep = 500 ms
    ic = all
    useprevic = no
    skipdc = no
    reltol = 10e-06
    abstol(V) = 1 uV
    abstol(I) = 1 pA
    temp = -40 C
    tnom = 27 C
    tempeffects = all
    errpreset = conservative
    method = gear2only
    lteratio = 10
    relref = alllocal
    cmin = 0 F
    gmin = 1 pS
    rabsshort = 1 mOhm


Notice from spectre during transient analysis `tran', during Monte Carlo analysis `mc1'.
    Multithreading is disabled due to the size of the design being too small.


Output and IC/nodeset summary:
                 save   8       (current)
                 save   87      (voltage)

    tran: time = 1.289 s     (2.58 %), step = 103.7 ms     (207 m%)
    tran: time = 3.951 s      (7.9 %), step = 299 ms       (598 m%)
    tran: time = 6.354 s     (12.7 %), step = 487 ms       (974 m%)
    tran: time = 8.854 s     (17.7 %), step = 500 ms          (1 %)
    tran: time = 11.35 s     (22.7 %), step = 500 ms          (1 %)
    tran: time = 13.85 s     (27.7 %), step = 500 ms          (1 %)
    tran: time = 16.35 s     (32.7 %), step = 500 ms          (1 %)
    tran: time = 18.85 s     (37.7 %), step = 500 ms          (1 %)
    tran: time = 21.35 s     (42.7 %), step = 500 ms          (1 %)
    tran: time = 23.85 s     (47.7 %), step = 500 ms          (1 %)
    tran: time = 26.35 s     (52.7 %), step = 500 ms          (1 %)
    tran: time = 28.85 s     (57.7 %), step = 500 ms          (1 %)
    tran: time = 31.35 s     (62.7 %), step = 500 ms          (1 %)
    tran: time = 34 s          (68 %), step = 331.9 ms     (664 m%)
    tran: time = 36.25 s     (72.5 %), step = 34.6 ms     (69.2 m%)
    tran: time = 39.03 s     (78.1 %), step = 432.7 ms     (865 m%)
    tran: time = 41.33 s     (82.7 %), step = 485.7 ms     (971 m%)
    tran: time = 43.83 s     (87.7 %), step = 500 ms          (1 %)
    tran: time = 46.33 s     (92.7 %), step = 500 ms          (1 %)
    tran: time = 48.83 s     (97.7 %), step = 500 ms          (1 %)
Number of accepted tran steps =             660

Maximum value achieved for any signal of each quantity: 
V: V(vout_filt) = 3.3 V
I: I(V8:p) = 6.278 uA

~~~~~~~~~~~~~~~~~~~~~~~~~~~~~~~~~
Post-Transient Simulation Summary
~~~~~~~~~~~~~~~~~~~~~~~~~~~~~~~~~
   -   To further speed up simulation, consider
          add ++aps on command line
   -   Non-default settings that could significantly slow down simulation
          errpreset = conservative, default moderate
          reltol = 10e-06, default 100e-06 (conservative)
~~~~~~~~~~~~~~~~~~~~~~~~~~~~~~~~~


During simulation, the CPU load for active processors is :
         0 (100.0 %)     1 (39.2 %)      2 (3.8 %)       3 (3.8 %)
         4 (23.4 %)      5 (3.1 %)       6 (21.5 %)      7 (55.0 %)
         8 (5.6 %)       9 (2.8 %)      10 (3.8 %)      11 (100.0 %)
        12 (21.5 %)     13 (63.5 %)     14 (20.8 %)     15 (3.1 %)
        16 (3.8 %)      17 (3.1 %)      18 (100.0 %)    19 (50.9 %)
        20 (15.2 %)     21 (10.2 %)     22 (4.2 %)      23 (40.5 %)
        24 (4.2 %)      25 (3.8 %)      26 (6.9 %)      27 (4.2 %)
        28 (8.4 %)      29 (2.5 %)      30 (94.2 %)     31 (27.1 %)
        32 (17.4 %)     33 (13.2 %)     34 (3.5 %)      35 (4.5 %)
        36 (43.8 %)     37 (7.7 %)      38 (18.4 %)     39 (10.5 %)
        40 (100.0 %)    41 (8.7 %)      42 (3.2 %)      43 (31.8 %)
        44 (9.7 %)      45 (12.2 %)     46 (2.1 %)      47 (11.1 %)
        Total: 1148.1%
Initial condition solution time: CPU = 2.828 ms, elapsed = 2.86222 ms.
Intrinsic tran analysis time:    CPU = 405.212 ms, elapsed = 406.603 ms.
Total time required for tran analysis `tran': CPU = 410.645 ms, elapsed = 412.648 ms, util. = 99.5%.
Time accumulated: CPU = 2.38033 s, elapsed = 2.99905 s.
Peak resident memory used = 214 Mbytes.


Notice from spectre during transient analysis `tran', during Monte Carlo analysis `mc1'.
    34 warnings suppressed.

finalTimeOP: writing operating point information to rawfile.

Opening the PSF file ../psf/mc1_separate/003/finalTimeOP.info ...
modelParameter: writing model parameter values to rawfile.

Opening the PSF file ../psf/mc1_separate/003/modelParameter.info ...
element: writing instance parameter values to rawfile.

Opening the PSF file ../psf/mc1_separate/003/element.info ...
outputParameter: writing output parameter values to rawfile.

Opening the PSF file ../psf/mc1_separate/003/outputParameter.info ...
designParamVals: writing netlist parameters to rawfile.

Opening the PSFASCII file ../psf/mc1_separate/003/designParamVals.info ...
primitives: writing primitives to rawfile.

Opening the PSFASCII file ../psf/mc1_separate/003/primitives.info.primitives ...
subckts: writing subcircuits to rawfile.

Opening the PSFASCII file ../psf/mc1_separate/003/subckts.info.subckts ...
4   3.03% 

*****************************************************************************************
* 
* INFO: AMS_processOption = C35B4C3
* 
* INFO: Valid Modules  PIP VG5 HIRES
* 
*****************************************************************************************


Notice from spectre during Monte Carlo analysis `mc1'.
    V8: `period' has the unusually large value of 100 s.


***********************************************
Transient Analysis `tran': time = (0 s -> 50 s)
***********************************************

Opening the PSF file ../psf/mc1_separate/004/tran.tran.tran ...

Warning from spectre during check, during IC analysis, during transient analysis `tran', during Monte Carlo analysis `mc1'.
    WARNING (CMI-2943): Parameter checks have been ignored because the valid value for parameter 'trise' could not be found in 'C1'.
    WARNING (CMI-2943): Parameter checks have been ignored because the valid value for parameter 'trise' could not be found in 'I0.R2.CM'.
    WARNING (CMI-2943): Parameter checks have been ignored because the valid value for parameter 'trise' could not be found in 'I0.R2.CS1'.
    WARNING (CMI-2943): Parameter checks have been ignored because the valid value for parameter 'trise' could not be found in 'I0.R2.CS0'.
    WARNING (CMI-2943): Parameter checks have been ignored because the valid value for parameter 'trise' could not be found in 'I0.C3.C1'.
        Further occurrences of this warning will be suppressed.

Convergence achieved in 12 iterations.
DC simulation time: CPU = 2.316 ms, elapsed = 2.31624 ms.
Important parameter values:
    start = 0 s
    outputstart = 0 s
    stop = 50 s
    step = 50 ms
    maxstep = 500 ms
    ic = all
    useprevic = no
    skipdc = no
    reltol = 10e-06
    abstol(V) = 1 uV
    abstol(I) = 1 pA
    temp = -40 C
    tnom = 27 C
    tempeffects = all
    errpreset = conservative
    method = gear2only
    lteratio = 10
    relref = alllocal
    cmin = 0 F
    gmin = 1 pS
    rabsshort = 1 mOhm


Notice from spectre during transient analysis `tran', during Monte Carlo analysis `mc1'.
    Multithreading is disabled due to the size of the design being too small.


Output and IC/nodeset summary:
                 save   8       (current)
                 save   87      (voltage)

    tran: time = 1.259 s     (2.52 %), step = 100.3 ms     (201 m%)
    tran: time = 3.838 s     (7.68 %), step = 289.7 ms     (579 m%)
    tran: time = 6.665 s     (13.3 %), step = 500 ms          (1 %)
    tran: time = 9.165 s     (18.3 %), step = 500 ms          (1 %)
    tran: time = 11.66 s     (23.3 %), step = 500 ms          (1 %)
    tran: time = 14.16 s     (28.3 %), step = 500 ms          (1 %)
    tran: time = 16.66 s     (33.3 %), step = 500 ms          (1 %)
    tran: time = 19.16 s     (38.3 %), step = 500 ms          (1 %)
    tran: time = 21.66 s     (43.3 %), step = 500 ms          (1 %)
    tran: time = 24.16 s     (48.3 %), step = 500 ms          (1 %)
    tran: time = 26.66 s     (53.3 %), step = 500 ms          (1 %)
    tran: time = 29.16 s     (58.3 %), step = 500 ms          (1 %)
    tran: time = 31.66 s     (63.3 %), step = 500 ms          (1 %)
    tran: time = 33.97 s     (67.9 %), step = 262.2 ms     (524 m%)
    tran: time = 36.32 s     (72.6 %), step = 72.55 ms     (145 m%)
    tran: time = 39.17 s     (78.3 %), step = 443.1 ms     (886 m%)
    tran: time = 41.56 s     (83.1 %), step = 500 ms          (1 %)
    tran: time = 44.06 s     (88.1 %), step = 500 ms          (1 %)
    tran: time = 46.56 s     (93.1 %), step = 500 ms          (1 %)
    tran: time = 49.06 s     (98.1 %), step = 500 ms          (1 %)
Number of accepted tran steps =             662

Maximum value achieved for any signal of each quantity: 
V: V(vout_filt) = 3.3 V
I: I(V8:p) = 6.596 uA

~~~~~~~~~~~~~~~~~~~~~~~~~~~~~~~~~
Post-Transient Simulation Summary
~~~~~~~~~~~~~~~~~~~~~~~~~~~~~~~~~
   -   To further speed up simulation, consider
          add ++aps on command line
   -   Non-default settings that could significantly slow down simulation
          errpreset = conservative, default moderate
          reltol = 10e-06, default 100e-06 (conservative)
~~~~~~~~~~~~~~~~~~~~~~~~~~~~~~~~~


During simulation, the CPU load for active processors is :
         0 (100.0 %)     1 (34.0 %)      2 (3.3 %)       3 (3.3 %)
         4 (20.2 %)      5 (2.7 %)       6 (19.4 %)      7 (48.2 %)
         8 (5.7 %)       9 (14.9 %)     10 (3.6 %)      11 (100.0 %)
        12 (19.4 %)     13 (65.8 %)     14 (19.2 %)     15 (3.3 %)
        16 (3.6 %)      17 (11.5 %)     18 (100.0 %)    19 (49.8 %)
        20 (15.7 %)     21 (9.4 %)      22 (4.3 %)      23 (35.1 %)
        24 (7.4 %)      25 (3.9 %)      26 (6.3 %)      27 (8.1 %)
        28 (7.3 %)      29 (3.0 %)      30 (93.8 %)     31 (24.2 %)
        32 (27.6 %)     33 (18.9 %)     34 (4.8 %)      35 (4.8 %)
        36 (48.1 %)     37 (13.6 %)     38 (16.8 %)     39 (9.6 %)
        40 (100.0 %)    41 (8.4 %)      42 (3.3 %)      43 (30.1 %)
        44 (12.5 %)     45 (12.5 %)     46 (3.1 %)      47 (18.9 %)
        Total: 1179.5%
Initial condition solution time: CPU = 2.365 ms, elapsed = 2.36607 ms.
Intrinsic tran analysis time:    CPU = 401.984 ms, elapsed = 403.562 ms.
Total time required for tran analysis `tran': CPU = 406.801 ms, elapsed = 409.05 ms, util. = 99.5%.
Time accumulated: CPU = 2.82759 s, elapsed = 3.46118 s.
Peak resident memory used = 214 Mbytes.


Notice from spectre during transient analysis `tran', during Monte Carlo analysis `mc1'.
    34 warnings suppressed.

finalTimeOP: writing operating point information to rawfile.

Opening the PSF file ../psf/mc1_separate/004/finalTimeOP.info ...
modelParameter: writing model parameter values to rawfile.

Opening the PSF file ../psf/mc1_separate/004/modelParameter.info ...
element: writing instance parameter values to rawfile.

Opening the PSF file ../psf/mc1_separate/004/element.info ...
outputParameter: writing output parameter values to rawfile.

Opening the PSF file ../psf/mc1_separate/004/outputParameter.info ...
designParamVals: writing netlist parameters to rawfile.

Opening the PSFASCII file ../psf/mc1_separate/004/designParamVals.info ...
primitives: writing primitives to rawfile.

Opening the PSFASCII file ../psf/mc1_separate/004/primitives.info.primitives ...
subckts: writing subcircuits to rawfile.

Opening the PSFASCII file ../psf/mc1_separate/004/subckts.info.subckts ...
    mc1: iteration = 4           (3.03 %), step = 1            (1.01 %)
5   4.04% 

*****************************************************************************************
* 
* INFO: AMS_processOption = C35B4C3
* 
* INFO: Valid Modules  PIP VG5 HIRES
* 
*****************************************************************************************


Notice from spectre during Monte Carlo analysis `mc1'.
    V8: `period' has the unusually large value of 100 s.


***********************************************
Transient Analysis `tran': time = (0 s -> 50 s)
***********************************************

Opening the PSF file ../psf/mc1_separate/005/tran.tran.tran ...

Warning from spectre during check, during IC analysis, during transient analysis `tran', during Monte Carlo analysis `mc1'.
    WARNING (CMI-2943): Parameter checks have been ignored because the valid value for parameter 'trise' could not be found in 'C1'.
    WARNING (CMI-2943): Parameter checks have been ignored because the valid value for parameter 'trise' could not be found in 'I0.R2.CM'.
    WARNING (CMI-2943): Parameter checks have been ignored because the valid value for parameter 'trise' could not be found in 'I0.R2.CS1'.
    WARNING (CMI-2943): Parameter checks have been ignored because the valid value for parameter 'trise' could not be found in 'I0.R2.CS0'.
    WARNING (CMI-2943): Parameter checks have been ignored because the valid value for parameter 'trise' could not be found in 'I0.C3.C1'.
        Further occurrences of this warning will be suppressed.

Convergence achieved in 12 iterations.
DC simulation time: CPU = 2.609 ms, elapsed = 2.62189 ms.
Important parameter values:
    start = 0 s
    outputstart = 0 s
    stop = 50 s
    step = 50 ms
    maxstep = 500 ms
    ic = all
    useprevic = no
    skipdc = no
    reltol = 10e-06
    abstol(V) = 1 uV
    abstol(I) = 1 pA
    temp = -40 C
    tnom = 27 C
    tempeffects = all
    errpreset = conservative
    method = gear2only
    lteratio = 10
    relref = alllocal
    cmin = 0 F
    gmin = 1 pS
    rabsshort = 1 mOhm


Notice from spectre during transient analysis `tran', during Monte Carlo analysis `mc1'.
    Multithreading is disabled due to the size of the design being too small.


Output and IC/nodeset summary:
                 save   8       (current)
                 save   87      (voltage)

    tran: time = 1.338 s     (2.68 %), step = 119.5 ms     (239 m%)
    tran: time = 4.039 s     (8.08 %), step = 314.6 ms     (629 m%)
    tran: time = 6.548 s     (13.1 %), step = 500 ms          (1 %)
    tran: time = 9.048 s     (18.1 %), step = 500 ms          (1 %)
    tran: time = 11.55 s     (23.1 %), step = 500 ms          (1 %)
    tran: time = 14.05 s     (28.1 %), step = 500 ms          (1 %)
    tran: time = 16.55 s     (33.1 %), step = 500 ms          (1 %)
    tran: time = 19.05 s     (38.1 %), step = 500 ms          (1 %)
    tran: time = 21.55 s     (43.1 %), step = 500 ms          (1 %)
    tran: time = 24.05 s     (48.1 %), step = 500 ms          (1 %)
    tran: time = 26.55 s     (53.1 %), step = 500 ms          (1 %)
    tran: time = 29.05 s     (58.1 %), step = 500 ms          (1 %)
    tran: time = 31.55 s     (63.1 %), step = 500 ms          (1 %)
    tran: time = 34.05 s     (68.1 %), step = 500 ms          (1 %)
    tran: time = 36.54 s     (73.1 %), step = 297.1 ms     (594 m%)
    tran: time = 38.76 s     (77.5 %), step = 32.89 ms    (65.8 m%)
    tran: time = 41.42 s     (82.8 %), step = 433.9 ms     (868 m%)
    tran: time = 44.23 s     (88.5 %), step = 500 ms          (1 %)
    tran: time = 46.73 s     (93.5 %), step = 500 ms          (1 %)
    tran: time = 49.23 s     (98.5 %), step = 500 ms          (1 %)
Number of accepted tran steps =             650

Maximum value achieved for any signal of each quantity: 
V: V(vout_filt) = 3.3 V
I: I(V8:p) = 6.478 uA

~~~~~~~~~~~~~~~~~~~~~~~~~~~~~~~~~
Post-Transient Simulation Summary
~~~~~~~~~~~~~~~~~~~~~~~~~~~~~~~~~
   -   To further speed up simulation, consider
          add ++aps on command line
   -   Non-default settings that could significantly slow down simulation
          errpreset = conservative, default moderate
          reltol = 10e-06, default 100e-06 (conservative)
~~~~~~~~~~~~~~~~~~~~~~~~~~~~~~~~~


During simulation, the CPU load for active processors is :
         0 (99.7 %)      1 (30.0 %)      2 (3.7 %)       3 (2.9 %)
         4 (18.9 %)      5 (3.7 %)       6 (17.6 %)      7 (42.7 %)
         8 (6.6 %)       9 (24.4 %)     10 (4.5 %)      11 (100.0 %)
        12 (21.0 %)     13 (61.7 %)     14 (19.5 %)     15 (3.4 %)
        16 (3.7 %)      17 (11.1 %)     18 (100.0 %)    19 (55.1 %)
        20 (16.5 %)     21 (9.5 %)      22 (4.5 %)      23 (31.0 %)
        24 (10.5 %)     25 (4.0 %)      26 (6.4 %)      27 (18.7 %)
        28 (7.9 %)      29 (3.2 %)      30 (90.9 %)     31 (24.9 %)
        32 (25.9 %)     33 (27.1 %)     34 (5.3 %)      35 (5.5 %)
        36 (43.2 %)     37 (14.3 %)     38 (19.2 %)     39 (9.0 %)
        40 (100.0 %)    41 (7.4 %)      42 (3.4 %)      43 (38.3 %)
        44 (11.1 %)     45 (11.1 %)     46 (2.7 %)      47 (28.5 %)
        Total: 1210.4%
Initial condition solution time: CPU = 2.655 ms, elapsed = 2.6691 ms.
Intrinsic tran analysis time:    CPU = 399.288 ms, elapsed = 400.938 ms.
Total time required for tran analysis `tran': CPU = 405.255 ms, elapsed = 407.669 ms, util. = 99.4%.
Time accumulated: CPU = 3.27644 s, elapsed = 3.9246 s.
Peak resident memory used = 214 Mbytes.


Notice from spectre during transient analysis `tran', during Monte Carlo analysis `mc1'.
    34 warnings suppressed.

finalTimeOP: writing operating point information to rawfile.

Opening the PSF file ../psf/mc1_separate/005/finalTimeOP.info ...
modelParameter: writing model parameter values to rawfile.

Opening the PSF file ../psf/mc1_separate/005/modelParameter.info ...
element: writing instance parameter values to rawfile.

Opening the PSF file ../psf/mc1_separate/005/element.info ...
outputParameter: writing output parameter values to rawfile.

Opening the PSF file ../psf/mc1_separate/005/outputParameter.info ...
designParamVals: writing netlist parameters to rawfile.

Opening the PSFASCII file ../psf/mc1_separate/005/designParamVals.info ...
primitives: writing primitives to rawfile.

Opening the PSFASCII file ../psf/mc1_separate/005/primitives.info.primitives ...
subckts: writing subcircuits to rawfile.

Opening the PSFASCII file ../psf/mc1_separate/005/subckts.info.subckts ...
    mc1: iteration = 5           (4.04 %), step = 1            (1.01 %)
6   5.05% 

*****************************************************************************************
* 
* INFO: AMS_processOption = C35B4C3
* 
* INFO: Valid Modules  PIP VG5 HIRES
* 
*****************************************************************************************


Notice from spectre during Monte Carlo analysis `mc1'.
    V8: `period' has the unusually large value of 100 s.


***********************************************
Transient Analysis `tran': time = (0 s -> 50 s)
***********************************************

Opening the PSF file ../psf/mc1_separate/006/tran.tran.tran ...

Warning from spectre during check, during IC analysis, during transient analysis `tran', during Monte Carlo analysis `mc1'.
    WARNING (CMI-2943): Parameter checks have been ignored because the valid value for parameter 'trise' could not be found in 'C1'.
    WARNING (CMI-2943): Parameter checks have been ignored because the valid value for parameter 'trise' could not be found in 'I0.R2.CM'.
    WARNING (CMI-2943): Parameter checks have been ignored because the valid value for parameter 'trise' could not be found in 'I0.R2.CS1'.
    WARNING (CMI-2943): Parameter checks have been ignored because the valid value for parameter 'trise' could not be found in 'I0.R2.CS0'.
    WARNING (CMI-2943): Parameter checks have been ignored because the valid value for parameter 'trise' could not be found in 'I0.C3.C1'.
        Further occurrences of this warning will be suppressed.

Convergence achieved in 12 iterations.
DC simulation time: CPU = 2.463 ms, elapsed = 2.46406 ms.
Important parameter values:
    start = 0 s
    outputstart = 0 s
    stop = 50 s
    step = 50 ms
    maxstep = 500 ms
    ic = all
    useprevic = no
    skipdc = no
    reltol = 10e-06
    abstol(V) = 1 uV
    abstol(I) = 1 pA
    temp = -40 C
    tnom = 27 C
    tempeffects = all
    errpreset = conservative
    method = gear2only
    lteratio = 10
    relref = alllocal
    cmin = 0 F
    gmin = 1 pS
    rabsshort = 1 mOhm


Notice from spectre during transient analysis `tran', during Monte Carlo analysis `mc1'.
    Multithreading is disabled due to the size of the design being too small.


Output and IC/nodeset summary:
                 save   8       (current)
                 save   87      (voltage)

    tran: time = 1.333 s     (2.67 %), step = 111.7 ms     (223 m%)
    tran: time = 3.868 s     (7.74 %), step = 296 ms       (592 m%)
    tran: time = 6.739 s     (13.5 %), step = 500 ms          (1 %)
    tran: time = 9.239 s     (18.5 %), step = 500 ms          (1 %)
    tran: time = 11.74 s     (23.5 %), step = 500 ms          (1 %)
    tran: time = 14.24 s     (28.5 %), step = 500 ms          (1 %)
    tran: time = 16.74 s     (33.5 %), step = 500 ms          (1 %)
    tran: time = 19.24 s     (38.5 %), step = 500 ms          (1 %)
    tran: time = 21.74 s     (43.5 %), step = 500 ms          (1 %)
    tran: time = 24.24 s     (48.5 %), step = 500 ms          (1 %)
    tran: time = 26.74 s     (53.5 %), step = 500 ms          (1 %)
    tran: time = 29.24 s     (58.5 %), step = 500 ms          (1 %)
    tran: time = 31.74 s     (63.5 %), step = 500 ms          (1 %)
    tran: time = 34.2 s      (68.4 %), step = 458.8 ms     (918 m%)
    tran: time = 36.29 s     (72.6 %), step = 105.6 ms     (211 m%)
    tran: time = 38.91 s     (77.8 %), step = 277.5 ms     (555 m%)
    tran: time = 41.47 s     (82.9 %), step = 459.9 ms     (920 m%)
    tran: time = 43.93 s     (87.9 %), step = 500 ms          (1 %)
    tran: time = 46.43 s     (92.9 %), step = 500 ms          (1 %)
    tran: time = 48.93 s     (97.9 %), step = 500 ms          (1 %)
Number of accepted tran steps =             659

Maximum value achieved for any signal of each quantity: 
V: V(vout_filt) = 3.3 V
I: I(V8:p) = 6.522 uA

~~~~~~~~~~~~~~~~~~~~~~~~~~~~~~~~~
Post-Transient Simulation Summary
~~~~~~~~~~~~~~~~~~~~~~~~~~~~~~~~~
   -   To further speed up simulation, consider
          add ++aps on command line
   -   Non-default settings that could significantly slow down simulation
          errpreset = conservative, default moderate
          reltol = 10e-06, default 100e-06 (conservative)
~~~~~~~~~~~~~~~~~~~~~~~~~~~~~~~~~


During simulation, the CPU load for active processors is :
         0 (95.1 %)      1 (31.0 %)      2 (3.8 %)       3 (3.3 %)
         4 (17.6 %)      5 (8.0 %)       6 (17.4 %)      7 (44.0 %)
         8 (6.1 %)       9 (32.1 %)     10 (5.2 %)      11 (100.0 %)
        12 (20.6 %)     13 (62.6 %)     14 (20.2 %)     15 (4.3 %)
        16 (3.5 %)      17 (10.0 %)     18 (100.0 %)    19 (49.5 %)
        20 (17.1 %)     21 (19.1 %)     22 (4.0 %)      23 (28.3 %)
        24 (19.9 %)     25 (4.0 %)      26 (6.1 %)      27 (27.6 %)
        28 (7.6 %)      29 (3.8 %)      30 (81.4 %)     31 (22.5 %)
        32 (24.4 %)     33 (35.0 %)     34 (5.4 %)      35 (5.9 %)
        36 (40.4 %)     37 (14.2 %)     38 (17.4 %)     39 (9.2 %)
        40 (100.0 %)    41 (7.3 %)      42 (3.3 %)      43 (44.3 %)
        44 (10.4 %)     45 (10.1 %)     46 (5.3 %)      47 (33.8 %)
        Total: 1241.9%
Initial condition solution time: CPU = 2.508 ms, elapsed = 2.51007 ms.
Intrinsic tran analysis time:    CPU = 402.309 ms, elapsed = 403.744 ms.
Total time required for tran analysis `tran': CPU = 407.353 ms, elapsed = 409.379 ms, util. = 99.5%.
Time accumulated: CPU = 3.7269 s, elapsed = 4.38865 s.
Peak resident memory used = 214 Mbytes.


Notice from spectre during transient analysis `tran', during Monte Carlo analysis `mc1'.
    34 warnings suppressed.

finalTimeOP: writing operating point information to rawfile.

Opening the PSF file ../psf/mc1_separate/006/finalTimeOP.info ...
modelParameter: writing model parameter values to rawfile.

Opening the PSF file ../psf/mc1_separate/006/modelParameter.info ...
element: writing instance parameter values to rawfile.

Opening the PSF file ../psf/mc1_separate/006/element.info ...
outputParameter: writing output parameter values to rawfile.

Opening the PSF file ../psf/mc1_separate/006/outputParameter.info ...
designParamVals: writing netlist parameters to rawfile.

Opening the PSFASCII file ../psf/mc1_separate/006/designParamVals.info ...
primitives: writing primitives to rawfile.

Opening the PSFASCII file ../psf/mc1_separate/006/primitives.info.primitives ...
subckts: writing subcircuits to rawfile.

Opening the PSFASCII file ../psf/mc1_separate/006/subckts.info.subckts ...
    mc1: iteration = 6           (5.05 %), step = 1            (1.01 %)
7   6.06% 

*****************************************************************************************
* 
* INFO: AMS_processOption = C35B4C3
* 
* INFO: Valid Modules  PIP VG5 HIRES
* 
*****************************************************************************************


Notice from spectre during Monte Carlo analysis `mc1'.
    V8: `period' has the unusually large value of 100 s.


***********************************************
Transient Analysis `tran': time = (0 s -> 50 s)
***********************************************

Opening the PSF file ../psf/mc1_separate/007/tran.tran.tran ...

Warning from spectre during check, during IC analysis, during transient analysis `tran', during Monte Carlo analysis `mc1'.
    WARNING (CMI-2943): Parameter checks have been ignored because the valid value for parameter 'trise' could not be found in 'C1'.
    WARNING (CMI-2943): Parameter checks have been ignored because the valid value for parameter 'trise' could not be found in 'I0.R2.CM'.
    WARNING (CMI-2943): Parameter checks have been ignored because the valid value for parameter 'trise' could not be found in 'I0.R2.CS1'.
    WARNING (CMI-2943): Parameter checks have been ignored because the valid value for parameter 'trise' could not be found in 'I0.R2.CS0'.
    WARNING (CMI-2943): Parameter checks have been ignored because the valid value for parameter 'trise' could not be found in 'I0.C3.C1'.
        Further occurrences of this warning will be suppressed.

Convergence achieved in 12 iterations.
DC simulation time: CPU = 2.528 ms, elapsed = 2.52914 ms.
Important parameter values:
    start = 0 s
    outputstart = 0 s
    stop = 50 s
    step = 50 ms
    maxstep = 500 ms
    ic = all
    useprevic = no
    skipdc = no
    reltol = 10e-06
    abstol(V) = 1 uV
    abstol(I) = 1 pA
    temp = -40 C
    tnom = 27 C
    tempeffects = all
    errpreset = conservative
    method = gear2only
    lteratio = 10
    relref = alllocal
    cmin = 0 F
    gmin = 1 pS
    rabsshort = 1 mOhm


Notice from spectre during transient analysis `tran', during Monte Carlo analysis `mc1'.
    Multithreading is disabled due to the size of the design being too small.


Output and IC/nodeset summary:
                 save   8       (current)
                 save   87      (voltage)

    tran: time = 1.34 s      (2.68 %), step = 116.9 ms     (234 m%)
    tran: time = 3.986 s     (7.97 %), step = 308.4 ms     (617 m%)
    tran: time = 6.456 s     (12.9 %), step = 500 ms          (1 %)
    tran: time = 8.956 s     (17.9 %), step = 500 ms          (1 %)
    tran: time = 11.46 s     (22.9 %), step = 500 ms          (1 %)
    tran: time = 13.96 s     (27.9 %), step = 500 ms          (1 %)
    tran: time = 16.46 s     (32.9 %), step = 500 ms          (1 %)
    tran: time = 18.96 s     (37.9 %), step = 500 ms          (1 %)
    tran: time = 21.46 s     (42.9 %), step = 500 ms          (1 %)
    tran: time = 23.96 s     (47.9 %), step = 500 ms          (1 %)
    tran: time = 26.46 s     (52.9 %), step = 500 ms          (1 %)
    tran: time = 28.96 s     (57.9 %), step = 500 ms          (1 %)
    tran: time = 31.46 s     (62.9 %), step = 500 ms          (1 %)
    tran: time = 33.96 s     (67.9 %), step = 500 ms          (1 %)
    tran: time = 36.33 s     (72.7 %), step = 274.3 ms     (549 m%)
    tran: time = 38.81 s     (77.6 %), step = 79.94 ms     (160 m%)
    tran: time = 41.47 s     (82.9 %), step = 440.2 ms     (880 m%)
    tran: time = 43.84 s     (87.7 %), step = 500 ms          (1 %)
    tran: time = 46.34 s     (92.7 %), step = 500 ms          (1 %)
    tran: time = 48.84 s     (97.7 %), step = 500 ms          (1 %)
Number of accepted tran steps =             654

Maximum value achieved for any signal of each quantity: 
V: V(vout_filt) = 3.3 V
I: I(V8:p) = 6.435 uA

~~~~~~~~~~~~~~~~~~~~~~~~~~~~~~~~~
Post-Transient Simulation Summary
~~~~~~~~~~~~~~~~~~~~~~~~~~~~~~~~~
   -   To further speed up simulation, consider
          add ++aps on command line
   -   Non-default settings that could significantly slow down simulation
          errpreset = conservative, default moderate
          reltol = 10e-06, default 100e-06 (conservative)
~~~~~~~~~~~~~~~~~~~~~~~~~~~~~~~~~


During simulation, the CPU load for active processors is :
         0 (86.2 %)      1 (28.6 %)      2 (4.0 %)       3 (3.6 %)
         4 (25.5 %)      5 (17.4 %)      6 (15.9 %)      7 (47.8 %)
         8 (6.4 %)       9 (29.5 %)     10 (5.1 %)      11 (100.0 %)
        12 (21.3 %)     13 (59.6 %)     14 (25.8 %)     15 (6.4 %)
        16 (4.1 %)      17 (10.1 %)     18 (100.0 %)    19 (54.4 %)
        20 (17.9 %)     21 (18.3 %)     22 (4.3 %)      23 (26.2 %)
        24 (26.3 %)     25 (10.0 %)     26 (5.8 %)      27 (34.9 %)
        28 (8.5 %)      29 (3.4 %)      30 (74.2 %)     31 (20.7 %)
        32 (22.6 %)     33 (34.2 %)     34 (5.3 %)      35 (7.0 %)
        36 (36.5 %)     37 (13.4 %)     38 (15.9 %)     39 (8.9 %)
        40 (100.0 %)    41 (7.6 %)      42 (3.0 %)      43 (40.6 %)
        44 (19.1 %)     45 (9.1 %)      46 (5.0 %)      47 (40.4 %)
        Total: 1271.1%
Initial condition solution time: CPU = 2.573 ms, elapsed = 2.57492 ms.
Intrinsic tran analysis time:    CPU = 413.986 ms, elapsed = 415.718 ms.
Total time required for tran analysis `tran': CPU = 419.143 ms, elapsed = 421.486 ms, util. = 99.4%.
Time accumulated: CPU = 4.18797 s, elapsed = 4.86237 s.
Peak resident memory used = 214 Mbytes.


Notice from spectre during transient analysis `tran', during Monte Carlo analysis `mc1'.
    34 warnings suppressed.

finalTimeOP: writing operating point information to rawfile.

Opening the PSF file ../psf/mc1_separate/007/finalTimeOP.info ...
modelParameter: writing model parameter values to rawfile.

Opening the PSF file ../psf/mc1_separate/007/modelParameter.info ...
element: writing instance parameter values to rawfile.

Opening the PSF file ../psf/mc1_separate/007/element.info ...
outputParameter: writing output parameter values to rawfile.

Opening the PSF file ../psf/mc1_separate/007/outputParameter.info ...
designParamVals: writing netlist parameters to rawfile.

Opening the PSFASCII file ../psf/mc1_separate/007/designParamVals.info ...
primitives: writing primitives to rawfile.

Opening the PSFASCII file ../psf/mc1_separate/007/primitives.info.primitives ...
subckts: writing subcircuits to rawfile.

Opening the PSFASCII file ../psf/mc1_separate/007/subckts.info.subckts ...
    mc1: iteration = 7           (6.06 %), step = 1            (1.01 %)
8   7.07% 

*****************************************************************************************
* 
* INFO: AMS_processOption = C35B4C3
* 
* INFO: Valid Modules  PIP VG5 HIRES
* 
*****************************************************************************************


Notice from spectre during Monte Carlo analysis `mc1'.
    V8: `period' has the unusually large value of 100 s.


***********************************************
Transient Analysis `tran': time = (0 s -> 50 s)
***********************************************

Opening the PSF file ../psf/mc1_separate/008/tran.tran.tran ...

Warning from spectre during check, during IC analysis, during transient analysis `tran', during Monte Carlo analysis `mc1'.
    WARNING (CMI-2943): Parameter checks have been ignored because the valid value for parameter 'trise' could not be found in 'C1'.
    WARNING (CMI-2943): Parameter checks have been ignored because the valid value for parameter 'trise' could not be found in 'I0.R2.CM'.
    WARNING (CMI-2943): Parameter checks have been ignored because the valid value for parameter 'trise' could not be found in 'I0.R2.CS1'.
    WARNING (CMI-2943): Parameter checks have been ignored because the valid value for parameter 'trise' could not be found in 'I0.R2.CS0'.
    WARNING (CMI-2943): Parameter checks have been ignored because the valid value for parameter 'trise' could not be found in 'I0.C3.C1'.
        Further occurrences of this warning will be suppressed.

Convergence achieved in 12 iterations.
DC simulation time: CPU = 2.512 ms, elapsed = 2.51293 ms.
Important parameter values:
    start = 0 s
    outputstart = 0 s
    stop = 50 s
    step = 50 ms
    maxstep = 500 ms
    ic = all
    useprevic = no
    skipdc = no
    reltol = 10e-06
    abstol(V) = 1 uV
    abstol(I) = 1 pA
    temp = -40 C
    tnom = 27 C
    tempeffects = all
    errpreset = conservative
    method = gear2only
    lteratio = 10
    relref = alllocal
    cmin = 0 F
    gmin = 1 pS
    rabsshort = 1 mOhm


Notice from spectre during transient analysis `tran', during Monte Carlo analysis `mc1'.
    Multithreading is disabled due to the size of the design being too small.


Output and IC/nodeset summary:
                 save   8       (current)
                 save   87      (voltage)

    tran: time = 1.368 s     (2.74 %), step = 122.2 ms     (244 m%)
    tran: time = 3.809 s     (7.62 %), step = 297.9 ms     (596 m%)
    tran: time = 6.689 s     (13.4 %), step = 500 ms          (1 %)
    tran: time = 9.189 s     (18.4 %), step = 500 ms          (1 %)
    tran: time = 11.69 s     (23.4 %), step = 500 ms          (1 %)
    tran: time = 14.19 s     (28.4 %), step = 500 ms          (1 %)
    tran: time = 16.69 s     (33.4 %), step = 500 ms          (1 %)
    tran: time = 19.19 s     (38.4 %), step = 500 ms          (1 %)
    tran: time = 21.69 s     (43.4 %), step = 500 ms          (1 %)
    tran: time = 24.19 s     (48.4 %), step = 500 ms          (1 %)
    tran: time = 26.69 s     (53.4 %), step = 500 ms          (1 %)
    tran: time = 29.19 s     (58.4 %), step = 500 ms          (1 %)
    tran: time = 31.69 s     (63.4 %), step = 500 ms          (1 %)
    tran: time = 34.19 s     (68.4 %), step = 500 ms          (1 %)
    tran: time = 36.35 s     (72.7 %), step = 335.4 ms     (671 m%)
    tran: time = 38.77 s     (77.5 %), step = 49.86 ms    (99.7 m%)
    tran: time = 41.43 s     (82.9 %), step = 433.4 ms     (867 m%)
    tran: time = 44.24 s     (88.5 %), step = 500 ms          (1 %)
    tran: time = 46.74 s     (93.5 %), step = 500 ms          (1 %)
    tran: time = 49.24 s     (98.5 %), step = 500 ms          (1 %)
Number of accepted tran steps =             651

Maximum value achieved for any signal of each quantity: 
V: V(vout_filt) = 3.3 V
I: I(V8:p) = 6.469 uA

~~~~~~~~~~~~~~~~~~~~~~~~~~~~~~~~~
Post-Transient Simulation Summary
~~~~~~~~~~~~~~~~~~~~~~~~~~~~~~~~~
   -   To further speed up simulation, consider
          add ++aps on command line
   -   Non-default settings that could significantly slow down simulation
          errpreset = conservative, default moderate
          reltol = 10e-06, default 100e-06 (conservative)
~~~~~~~~~~~~~~~~~~~~~~~~~~~~~~~~~


During simulation, the CPU load for active processors is :
         0 (79.1 %)      1 (26.7 %)      2 (4.1 %)       3 (3.9 %)
         4 (31.9 %)      5 (24.3 %)      6 (15.0 %)      7 (50.5 %)
         8 (6.2 %)       9 (27.3 %)     10 (5.4 %)      11 (100.0 %)
        12 (21.1 %)     13 (55.7 %)     14 (32.4 %)     15 (7.5 %)
        16 (5.2 %)      17 (15.7 %)     18 (96.2 %)     19 (51.0 %)
        20 (18.6 %)     21 (17.9 %)     22 (5.9 %)      23 (26.5 %)
        24 (24.3 %)     25 (18.2 %)     26 (5.8 %)      27 (40.7 %)
        28 (16.8 %)     29 (3.9 %)      30 (67.6 %)     31 (19.2 %)
        32 (20.6 %)     33 (31.4 %)     34 (6.2 %)      35 (7.0 %)
        36 (34.2 %)     37 (12.3 %)     38 (15.7 %)     39 (8.5 %)
        40 (100.0 %)    41 (9.1 %)      42 (2.9 %)      43 (42.2 %)
        44 (26.3 %)     45 (8.9 %)      46 (9.6 %)      47 (41.0 %)
        Total: 1300.7%
Initial condition solution time: CPU = 2.553 ms, elapsed = 2.55513 ms.
Intrinsic tran analysis time:    CPU = 411.241 ms, elapsed = 412.963 ms.
Total time required for tran analysis `tran': CPU = 416.583 ms, elapsed = 418.893 ms, util. = 99.4%.
Time accumulated: CPU = 4.64595 s, elapsed = 5.33382 s.
Peak resident memory used = 214 Mbytes.


Notice from spectre during transient analysis `tran', during Monte Carlo analysis `mc1'.
    34 warnings suppressed.

finalTimeOP: writing operating point information to rawfile.

Opening the PSF file ../psf/mc1_separate/008/finalTimeOP.info ...
modelParameter: writing model parameter values to rawfile.

Opening the PSF file ../psf/mc1_separate/008/modelParameter.info ...
element: writing instance parameter values to rawfile.

Opening the PSF file ../psf/mc1_separate/008/element.info ...
outputParameter: writing output parameter values to rawfile.

Opening the PSF file ../psf/mc1_separate/008/outputParameter.info ...
designParamVals: writing netlist parameters to rawfile.

Opening the PSFASCII file ../psf/mc1_separate/008/designParamVals.info ...
primitives: writing primitives to rawfile.

Opening the PSFASCII file ../psf/mc1_separate/008/primitives.info.primitives ...
subckts: writing subcircuits to rawfile.

Opening the PSFASCII file ../psf/mc1_separate/008/subckts.info.subckts ...
    mc1: iteration = 8           (7.07 %), step = 1            (1.01 %)
9   8.08% 

*****************************************************************************************
* 
* INFO: AMS_processOption = C35B4C3
* 
* INFO: Valid Modules  PIP VG5 HIRES
* 
*****************************************************************************************


Notice from spectre during Monte Carlo analysis `mc1'.
    V8: `period' has the unusually large value of 100 s.


***********************************************
Transient Analysis `tran': time = (0 s -> 50 s)
***********************************************

Opening the PSF file ../psf/mc1_separate/009/tran.tran.tran ...

Warning from spectre during check, during IC analysis, during transient analysis `tran', during Monte Carlo analysis `mc1'.
    WARNING (CMI-2943): Parameter checks have been ignored because the valid value for parameter 'trise' could not be found in 'C1'.
    WARNING (CMI-2943): Parameter checks have been ignored because the valid value for parameter 'trise' could not be found in 'I0.R2.CM'.
    WARNING (CMI-2943): Parameter checks have been ignored because the valid value for parameter 'trise' could not be found in 'I0.R2.CS1'.
    WARNING (CMI-2943): Parameter checks have been ignored because the valid value for parameter 'trise' could not be found in 'I0.R2.CS0'.
    WARNING (CMI-2943): Parameter checks have been ignored because the valid value for parameter 'trise' could not be found in 'I0.C3.C1'.
        Further occurrences of this warning will be suppressed.

Convergence achieved in 12 iterations.
DC simulation time: CPU = 2.651 ms, elapsed = 2.65098 ms.
Important parameter values:
    start = 0 s
    outputstart = 0 s
    stop = 50 s
    step = 50 ms
    maxstep = 500 ms
    ic = all
    useprevic = no
    skipdc = no
    reltol = 10e-06
    abstol(V) = 1 uV
    abstol(I) = 1 pA
    temp = -40 C
    tnom = 27 C
    tempeffects = all
    errpreset = conservative
    method = gear2only
    lteratio = 10
    relref = alllocal
    cmin = 0 F
    gmin = 1 pS
    rabsshort = 1 mOhm


Notice from spectre during transient analysis `tran', during Monte Carlo analysis `mc1'.
    Multithreading is disabled due to the size of the design being too small.


Output and IC/nodeset summary:
                 save   8       (current)
                 save   87      (voltage)

    tran: time = 1.255 s     (2.51 %), step = 125.3 ms     (251 m%)
    tran: time = 4.068 s     (8.14 %), step = 326.6 ms     (653 m%)
    tran: time = 6.653 s     (13.3 %), step = 500 ms          (1 %)
    tran: time = 9.153 s     (18.3 %), step = 500 ms          (1 %)
    tran: time = 11.65 s     (23.3 %), step = 500 ms          (1 %)
    tran: time = 14.15 s     (28.3 %), step = 500 ms          (1 %)
    tran: time = 16.65 s     (33.3 %), step = 500 ms          (1 %)
    tran: time = 19.15 s     (38.3 %), step = 500 ms          (1 %)
    tran: time = 21.65 s     (43.3 %), step = 500 ms          (1 %)
    tran: time = 24.15 s     (48.3 %), step = 500 ms          (1 %)
    tran: time = 26.65 s     (53.3 %), step = 500 ms          (1 %)
    tran: time = 29.15 s     (58.3 %), step = 500 ms          (1 %)
    tran: time = 31.65 s     (63.3 %), step = 500 ms          (1 %)
    tran: time = 34.15 s     (68.3 %), step = 500 ms          (1 %)
    tran: time = 36.61 s     (73.2 %), step = 457.4 ms     (915 m%)
    tran: time = 38.79 s     (77.6 %), step = 88.72 ms     (177 m%)
    tran: time = 41.56 s     (83.1 %), step = 326.3 ms     (653 m%)
    tran: time = 44.21 s     (88.4 %), step = 468.5 ms     (937 m%)
    tran: time = 46.69 s     (93.4 %), step = 500 ms          (1 %)
    tran: time = 49.19 s     (98.4 %), step = 500 ms          (1 %)
Number of accepted tran steps =             647

Maximum value achieved for any signal of each quantity: 
V: V(vout_filt) = 3.3 V
I: I(V8:p) = 6.279 uA

~~~~~~~~~~~~~~~~~~~~~~~~~~~~~~~~~
Post-Transient Simulation Summary
~~~~~~~~~~~~~~~~~~~~~~~~~~~~~~~~~
   -   To further speed up simulation, consider
          add ++aps on command line
   -   Non-default settings that could significantly slow down simulation
          errpreset = conservative, default moderate
          reltol = 10e-06, default 100e-06 (conservative)
~~~~~~~~~~~~~~~~~~~~~~~~~~~~~~~~~


During simulation, the CPU load for active processors is :
         0 (73.5 %)      1 (26.0 %)      2 (4.1 %)       3 (3.6 %)
         4 (37.2 %)      5 (30.6 %)      6 (14.1 %)      7 (48.4 %)
         8 (6.0 %)       9 (27.8 %)     10 (5.7 %)      11 (100.0 %)
        12 (20.8 %)     13 (52.1 %)     14 (31.9 %)     15 (13.3 %)
        16 (5.7 %)      17 (22.8 %)     18 (89.3 %)     19 (47.6 %)
        20 (18.3 %)     21 (17.4 %)     22 (8.0 %)      23 (25.1 %)
        24 (22.8 %)     25 (24.1 %)     26 (7.0 %)      27 (45.7 %)
        28 (23.8 %)     29 (4.3 %)      30 (63.0 %)     31 (18.5 %)
        32 (19.4 %)     33 (29.0 %)     34 (5.8 %)      35 (6.6 %)
        36 (31.7 %)     37 (11.8 %)     38 (14.6 %)     39 (10.7 %)
        40 (96.9 %)     41 (9.9 %)      42 (3.0 %)      43 (47.0 %)
        44 (32.0 %)     45 (8.5 %)      46 (17.2 %)     47 (39.5 %)
        Total: 1322.3%
Initial condition solution time: CPU = 2.694 ms, elapsed = 2.69604 ms.
Intrinsic tran analysis time:    CPU = 408.31 ms, elapsed = 410.799 ms.
Total time required for tran analysis `tran': CPU = 413.666 ms, elapsed = 416.716 ms, util. = 99.3%.
Time accumulated: CPU = 5.10127 s, elapsed = 5.80521 s.
Peak resident memory used = 214 Mbytes.


Notice from spectre during transient analysis `tran', during Monte Carlo analysis `mc1'.
    34 warnings suppressed.

finalTimeOP: writing operating point information to rawfile.

Opening the PSF file ../psf/mc1_separate/009/finalTimeOP.info ...
modelParameter: writing model parameter values to rawfile.

Opening the PSF file ../psf/mc1_separate/009/modelParameter.info ...
element: writing instance parameter values to rawfile.

Opening the PSF file ../psf/mc1_separate/009/element.info ...
outputParameter: writing output parameter values to rawfile.

Opening the PSF file ../psf/mc1_separate/009/outputParameter.info ...
designParamVals: writing netlist parameters to rawfile.

Opening the PSFASCII file ../psf/mc1_separate/009/designParamVals.info ...
primitives: writing primitives to rawfile.

Opening the PSFASCII file ../psf/mc1_separate/009/primitives.info.primitives ...
subckts: writing subcircuits to rawfile.

Opening the PSFASCII file ../psf/mc1_separate/009/subckts.info.subckts ...
    mc1: iteration = 9           (8.08 %), step = 1            (1.01 %)
10   9.09% 

*****************************************************************************************
* 
* INFO: AMS_processOption = C35B4C3
* 
* INFO: Valid Modules  PIP VG5 HIRES
* 
*****************************************************************************************


Notice from spectre during Monte Carlo analysis `mc1'.
    V8: `period' has the unusually large value of 100 s.


***********************************************
Transient Analysis `tran': time = (0 s -> 50 s)
***********************************************

Opening the PSF file ../psf/mc1_separate/010/tran.tran.tran ...

Warning from spectre during check, during IC analysis, during transient analysis `tran', during Monte Carlo analysis `mc1'.
    WARNING (CMI-2943): Parameter checks have been ignored because the valid value for parameter 'trise' could not be found in 'C1'.
    WARNING (CMI-2943): Parameter checks have been ignored because the valid value for parameter 'trise' could not be found in 'I0.R2.CM'.
    WARNING (CMI-2943): Parameter checks have been ignored because the valid value for parameter 'trise' could not be found in 'I0.R2.CS1'.
    WARNING (CMI-2943): Parameter checks have been ignored because the valid value for parameter 'trise' could not be found in 'I0.R2.CS0'.
    WARNING (CMI-2943): Parameter checks have been ignored because the valid value for parameter 'trise' could not be found in 'I0.C3.C1'.
        Further occurrences of this warning will be suppressed.

Convergence achieved in 12 iterations.
DC simulation time: CPU = 2.597 ms, elapsed = 2.59781 ms.
Important parameter values:
    start = 0 s
    outputstart = 0 s
    stop = 50 s
    step = 50 ms
    maxstep = 500 ms
    ic = all
    useprevic = no
    skipdc = no
    reltol = 10e-06
    abstol(V) = 1 uV
    abstol(I) = 1 pA
    temp = -40 C
    tnom = 27 C
    tempeffects = all
    errpreset = conservative
    method = gear2only
    lteratio = 10
    relref = alllocal
    cmin = 0 F
    gmin = 1 pS
    rabsshort = 1 mOhm


Notice from spectre during transient analysis `tran', during Monte Carlo analysis `mc1'.
    Multithreading is disabled due to the size of the design being too small.


Output and IC/nodeset summary:
                 save   8       (current)
                 save   87      (voltage)

    tran: time = 1.264 s     (2.53 %), step = 104.1 ms     (208 m%)
    tran: time = 3.927 s     (7.85 %), step = 298.5 ms     (597 m%)
    tran: time = 6.322 s     (12.6 %), step = 485.2 ms     (970 m%)
    tran: time = 8.822 s     (17.6 %), step = 500 ms          (1 %)
    tran: time = 11.32 s     (22.6 %), step = 500 ms          (1 %)
    tran: time = 13.82 s     (27.6 %), step = 500 ms          (1 %)
    tran: time = 16.32 s     (32.6 %), step = 500 ms          (1 %)
    tran: time = 18.82 s     (37.6 %), step = 500 ms          (1 %)
    tran: time = 21.32 s     (42.6 %), step = 500 ms          (1 %)
    tran: time = 23.82 s     (47.6 %), step = 500 ms          (1 %)
    tran: time = 26.32 s     (52.6 %), step = 500 ms          (1 %)
    tran: time = 28.82 s     (57.6 %), step = 500 ms          (1 %)
[...]


***********************************************
Transient Analysis `tran': time = (0 s -> 50 s)
***********************************************

Opening the PSF file ../psf/mc1_separate/098/tran.tran.tran ...

Warning from spectre during check, during IC analysis, during transient analysis `tran', during Monte Carlo analysis `mc1'.
    WARNING (CMI-2943): Parameter checks have been ignored because the valid value for parameter 'trise' could not be found in 'C1'.
    WARNING (CMI-2943): Parameter checks have been ignored because the valid value for parameter 'trise' could not be found in 'I0.R2.CM'.
    WARNING (CMI-2943): Parameter checks have been ignored because the valid value for parameter 'trise' could not be found in 'I0.R2.CS1'.
    WARNING (CMI-2943): Parameter checks have been ignored because the valid value for parameter 'trise' could not be found in 'I0.R2.CS0'.
    WARNING (CMI-2943): Parameter checks have been ignored because the valid value for parameter 'trise' could not be found in 'I0.C3.C1'.
        Further occurrences of this warning will be suppressed.

Convergence achieved in 12 iterations.
DC simulation time: CPU = 2.313 ms, elapsed = 2.31314 ms.
Important parameter values:
    start = 0 s
    outputstart = 0 s
    stop = 50 s
    step = 50 ms
    maxstep = 500 ms
    ic = all
    useprevic = no
    skipdc = no
    reltol = 10e-06
    abstol(V) = 1 uV
    abstol(I) = 1 pA
    temp = -40 C
    tnom = 27 C
    tempeffects = all
    errpreset = conservative
    method = gear2only
    lteratio = 10
    relref = alllocal
    cmin = 0 F
    gmin = 1 pS
    rabsshort = 1 mOhm


Notice from spectre during transient analysis `tran', during Monte Carlo analysis `mc1'.
    Multithreading is disabled due to the size of the design being too small.


Output and IC/nodeset summary:
                 save   8       (current)
                 save   87      (voltage)

    tran: time = 1.315 s     (2.63 %), step = 114.4 ms     (229 m%)
    tran: time = 3.903 s     (7.81 %), step = 301.5 ms     (603 m%)
    tran: time = 6.317 s     (12.6 %), step = 488.5 ms     (977 m%)
    tran: time = 8.817 s     (17.6 %), step = 500 ms          (1 %)
    tran: time = 11.32 s     (22.6 %), step = 500 ms          (1 %)
    tran: time = 13.82 s     (27.6 %), step = 500 ms          (1 %)
    tran: time = 16.32 s     (32.6 %), step = 500 ms          (1 %)
    tran: time = 18.82 s     (37.6 %), step = 500 ms          (1 %)
    tran: time = 21.32 s     (42.6 %), step = 500 ms          (1 %)
    tran: time = 23.82 s     (47.6 %), step = 500 ms          (1 %)
    tran: time = 26.32 s     (52.6 %), step = 500 ms          (1 %)
    tran: time = 28.82 s     (57.6 %), step = 500 ms          (1 %)
    tran: time = 31.32 s     (62.6 %), step = 500 ms          (1 %)
    tran: time = 33.82 s     (67.6 %), step = 500 ms          (1 %)
    tran: time = 36.41 s     (72.8 %), step = 231.4 ms     (463 m%)
    tran: time = 38.79 s     (77.6 %), step = 105.4 ms     (211 m%)
    tran: time = 41.49 s       (83 %), step = 444 ms       (888 m%)
    tran: time = 43.88 s     (87.8 %), step = 500 ms          (1 %)
    tran: time = 46.38 s     (92.8 %), step = 500 ms          (1 %)
    tran: time = 48.88 s     (97.8 %), step = 500 ms          (1 %)
Number of accepted tran steps =             654

Maximum value achieved for any signal of each quantity: 
V: V(vout_filt) = 3.3 V
I: I(V8:p) = 6.313 uA

~~~~~~~~~~~~~~~~~~~~~~~~~~~~~~~~~
Post-Transient Simulation Summary
~~~~~~~~~~~~~~~~~~~~~~~~~~~~~~~~~
   -   To further speed up simulation, consider
          add ++aps on command line
   -   Non-default settings that could significantly slow down simulation
          errpreset = conservative, default moderate
          reltol = 10e-06, default 100e-06 (conservative)
~~~~~~~~~~~~~~~~~~~~~~~~~~~~~~~~~


During simulation, the CPU load for active processors is :
         0 (41.6 %)      1 (45.6 %)      2 (36.8 %)      3 (18.8 %)
         4 (26.7 %)      5 (29.5 %)      6 (26.8 %)      7 (65.3 %)
         8 (85.4 %)      9 (14.3 %)     10 (27.9 %)     11 (35.7 %)
        12 (32.3 %)     13 (28.1 %)     14 (20.1 %)     15 (39.9 %)
        16 (20.2 %)     17 (40.4 %)     18 (54.6 %)     19 (37.7 %)
        20 (72.7 %)     21 (33.9 %)     22 (28.4 %)     23 (28.0 %)
        24 (35.3 %)     25 (25.1 %)     26 (25.1 %)     27 (55.0 %)
        28 (42.8 %)     29 (36.4 %)     30 (37.1 %)     31 (17.0 %)
        32 (26.3 %)     33 (30.3 %)     34 (41.1 %)     35 (37.7 %)
        36 (27.4 %)     37 (21.6 %)     38 (17.9 %)     39 (88.3 %)
        40 (51.3 %)     41 (32.4 %)     42 (12.1 %)     43 (30.3 %)
        44 (33.5 %)     45 (23.0 %)     46 (50.0 %)     47 (19.9 %)
        Total: 1708.1%
Initial condition solution time: CPU = 2.35 ms, elapsed = 2.35081 ms.
Intrinsic tran analysis time:    CPU = 361.495 ms, elapsed = 363.261 ms.
Total time required for tran analysis `tran': CPU = 366.416 ms, elapsed = 368.826 ms, util. = 99.3%.
Time accumulated: CPU = 41.076 s, elapsed = 43.1249 s.
Peak resident memory used = 215 Mbytes.


Notice from spectre during transient analysis `tran', during Monte Carlo analysis `mc1'.
    34 warnings suppressed.

finalTimeOP: writing operating point information to rawfile.

Opening the PSF file ../psf/mc1_separate/098/finalTimeOP.info ...
modelParameter: writing model parameter values to rawfile.

Opening the PSF file ../psf/mc1_separate/098/modelParameter.info ...
element: writing instance parameter values to rawfile.

Opening the PSF file ../psf/mc1_separate/098/element.info ...
outputParameter: writing output parameter values to rawfile.

Opening the PSF file ../psf/mc1_separate/098/outputParameter.info ...
designParamVals: writing netlist parameters to rawfile.

Opening the PSFASCII file ../psf/mc1_separate/098/designParamVals.info ...
primitives: writing primitives to rawfile.

Opening the PSFASCII file ../psf/mc1_separate/098/primitives.info.primitives ...
subckts: writing subcircuits to rawfile.

Opening the PSFASCII file ../psf/mc1_separate/098/subckts.info.subckts ...
    mc1: iteration = 98            (98 %), step = 1            (1.01 %)
99  98.99% 

*****************************************************************************************
* 
* INFO: AMS_processOption = C35B4C3
* 
* INFO: Valid Modules  PIP VG5 HIRES
* 
*****************************************************************************************


Notice from spectre during Monte Carlo analysis `mc1'.
    V8: `period' has the unusually large value of 100 s.


***********************************************
Transient Analysis `tran': time = (0 s -> 50 s)
***********************************************

Opening the PSF file ../psf/mc1_separate/099/tran.tran.tran ...

Warning from spectre during check, during IC analysis, during transient analysis `tran', during Monte Carlo analysis `mc1'.
    WARNING (CMI-2943): Parameter checks have been ignored because the valid value for parameter 'trise' could not be found in 'C1'.
    WARNING (CMI-2943): Parameter checks have been ignored because the valid value for parameter 'trise' could not be found in 'I0.R2.CM'.
    WARNING (CMI-2943): Parameter checks have been ignored because the valid value for parameter 'trise' could not be found in 'I0.R2.CS1'.
    WARNING (CMI-2943): Parameter checks have been ignored because the valid value for parameter 'trise' could not be found in 'I0.R2.CS0'.
    WARNING (CMI-2943): Parameter checks have been ignored because the valid value for parameter 'trise' could not be found in 'I0.C3.C1'.
        Further occurrences of this warning will be suppressed.

Convergence achieved in 12 iterations.
DC simulation time: CPU = 2.254 ms, elapsed = 2.26307 ms.
Important parameter values:
    start = 0 s
    outputstart = 0 s
    stop = 50 s
    step = 50 ms
    maxstep = 500 ms
    ic = all
    useprevic = no
    skipdc = no
    reltol = 10e-06
    abstol(V) = 1 uV
    abstol(I) = 1 pA
    temp = -40 C
    tnom = 27 C
    tempeffects = all
    errpreset = conservative
    method = gear2only
    lteratio = 10
    relref = alllocal
    cmin = 0 F
    gmin = 1 pS
    rabsshort = 1 mOhm


Notice from spectre during transient analysis `tran', during Monte Carlo analysis `mc1'.
    Multithreading is disabled due to the size of the design being too small.


Output and IC/nodeset summary:
                 save   8       (current)
                 save   87      (voltage)

    tran: time = 1.267 s     (2.53 %), step = 107.6 ms     (215 m%)
    tran: time = 4.011 s     (8.02 %), step = 307.1 ms     (614 m%)
    tran: time = 6.474 s     (12.9 %), step = 499.1 ms     (998 m%)
    tran: time = 8.974 s     (17.9 %), step = 500 ms          (1 %)
    tran: time = 11.47 s     (22.9 %), step = 500 ms          (1 %)
    tran: time = 13.97 s     (27.9 %), step = 500 ms          (1 %)
    tran: time = 16.47 s     (32.9 %), step = 500 ms          (1 %)
    tran: time = 18.97 s     (37.9 %), step = 500 ms          (1 %)
    tran: time = 21.47 s     (42.9 %), step = 500 ms          (1 %)
    tran: time = 23.97 s     (47.9 %), step = 500 ms          (1 %)
    tran: time = 26.47 s     (52.9 %), step = 500 ms          (1 %)
    tran: time = 28.97 s     (57.9 %), step = 500 ms          (1 %)
    tran: time = 31.47 s     (62.9 %), step = 500 ms          (1 %)
    tran: time = 33.97 s     (67.9 %), step = 498.5 ms     (997 m%)
    tran: time = 36.33 s     (72.7 %), step = 121.8 ms     (244 m%)
    tran: time = 39.03 s     (78.1 %), step = 276 ms       (552 m%)
    tran: time = 41.58 s     (83.2 %), step = 459.4 ms     (919 m%)
    tran: time = 44.04 s     (88.1 %), step = 500 ms          (1 %)
    tran: time = 46.54 s     (93.1 %), step = 500 ms          (1 %)
    tran: time = 49.04 s     (98.1 %), step = 500 ms          (1 %)
Number of accepted tran steps =             655

Maximum value achieved for any signal of each quantity: 
V: V(vout_filt) = 3.3 V
I: I(V8:p) = 6.268 uA

~~~~~~~~~~~~~~~~~~~~~~~~~~~~~~~~~
Post-Transient Simulation Summary
~~~~~~~~~~~~~~~~~~~~~~~~~~~~~~~~~
   -   To further speed up simulation, consider
          add ++aps on command line
   -   Non-default settings that could significantly slow down simulation
          errpreset = conservative, default moderate
          reltol = 10e-06, default 100e-06 (conservative)
~~~~~~~~~~~~~~~~~~~~~~~~~~~~~~~~~


During simulation, the CPU load for active processors is :
         0 (41.3 %)      1 (45.4 %)      2 (37.4 %)      3 (18.6 %)
         4 (26.5 %)      5 (29.3 %)      6 (27.4 %)      7 (64.7 %)
         8 (85.6 %)      9 (15.2 %)     10 (28.6 %)     11 (36.4 %)
        12 (32.9 %)     13 (28.0 %)     14 (20.9 %)     15 (40.3 %)
        16 (21.0 %)     17 (40.1 %)     18 (55.0 %)     19 (37.5 %)
        20 (72.5 %)     21 (33.7 %)     22 (29.1 %)     23 (28.4 %)
        24 (35.3 %)     25 (25.0 %)     26 (25.0 %)     27 (55.5 %)
        28 (43.2 %)     29 (36.9 %)     30 (37.2 %)     31 (17.1 %)
        32 (26.9 %)     33 (30.5 %)     34 (41.0 %)     35 (38.0 %)
        36 (28.0 %)     37 (22.3 %)     38 (18.0 %)     39 (88.4 %)
        40 (50.9 %)     41 (32.8 %)     42 (12.1 %)     43 (30.3 %)
        44 (33.4 %)     45 (23.3 %)     46 (50.4 %)     47 (19.8 %)
        Total: 1717.3%
Initial condition solution time: CPU = 2.292 ms, elapsed = 2.30289 ms.
Intrinsic tran analysis time:    CPU = 364.674 ms, elapsed = 366.159 ms.
Total time required for tran analysis `tran': CPU = 369.232 ms, elapsed = 371.361 ms, util. = 99.4%.
Time accumulated: CPU = 41.4824 s, elapsed = 43.5438 s.
Peak resident memory used = 215 Mbytes.


Notice from spectre during transient analysis `tran', during Monte Carlo analysis `mc1'.
    34 warnings suppressed.

finalTimeOP: writing operating point information to rawfile.

Opening the PSF file ../psf/mc1_separate/099/finalTimeOP.info ...
modelParameter: writing model parameter values to rawfile.

Opening the PSF file ../psf/mc1_separate/099/modelParameter.info ...
element: writing instance parameter values to rawfile.

Opening the PSF file ../psf/mc1_separate/099/element.info ...
outputParameter: writing output parameter values to rawfile.

Opening the PSF file ../psf/mc1_separate/099/outputParameter.info ...
designParamVals: writing netlist parameters to rawfile.

Opening the PSFASCII file ../psf/mc1_separate/099/designParamVals.info ...
primitives: writing primitives to rawfile.

Opening the PSFASCII file ../psf/mc1_separate/099/primitives.info.primitives ...
subckts: writing subcircuits to rawfile.

Opening the PSFASCII file ../psf/mc1_separate/099/subckts.info.subckts ...
    mc1: iteration = 99            (99 %), step = 1            (1.01 %)
100 100.00% 

*****************************************************************************************
* 
* INFO: AMS_processOption = C35B4C3
* 
* INFO: Valid Modules  PIP VG5 HIRES
* 
*****************************************************************************************


Notice from spectre during Monte Carlo analysis `mc1'.
    V8: `period' has the unusually large value of 100 s.


***********************************************
Transient Analysis `tran': time = (0 s -> 50 s)
***********************************************

Opening the PSF file ../psf/mc1_separate/100/tran.tran.tran ...

Warning from spectre during check, during IC analysis, during transient analysis `tran', during Monte Carlo analysis `mc1'.
    WARNING (CMI-2943): Parameter checks have been ignored because the valid value for parameter 'trise' could not be found in 'C1'.
    WARNING (CMI-2943): Parameter checks have been ignored because the valid value for parameter 'trise' could not be found in 'I0.R2.CM'.
    WARNING (CMI-2943): Parameter checks have been ignored because the valid value for parameter 'trise' could not be found in 'I0.R2.CS1'.
    WARNING (CMI-2943): Parameter checks have been ignored because the valid value for parameter 'trise' could not be found in 'I0.R2.CS0'.
    WARNING (CMI-2943): Parameter checks have been ignored because the valid value for parameter 'trise' could not be found in 'I0.C3.C1'.
        Further occurrences of this warning will be suppressed.

Convergence achieved in 12 iterations.
DC simulation time: CPU = 2.129 ms, elapsed = 2.1379 ms.
Important parameter values:
    start = 0 s
    outputstart = 0 s
    stop = 50 s
    step = 50 ms
    maxstep = 500 ms
    ic = all
    useprevic = no
    skipdc = no
    reltol = 10e-06
    abstol(V) = 1 uV
    abstol(I) = 1 pA
    temp = -40 C
    tnom = 27 C
    tempeffects = all
    errpreset = conservative
    method = gear2only
    lteratio = 10
    relref = alllocal
    cmin = 0 F
    gmin = 1 pS
    rabsshort = 1 mOhm


Notice from spectre during transient analysis `tran', during Monte Carlo analysis `mc1'.
    Multithreading is disabled due to the size of the design being too small.


Output and IC/nodeset summary:
                 save   8       (current)
                 save   87      (voltage)

    tran: time = 1.318 s     (2.64 %), step = 111.7 ms     (223 m%)
    tran: time = 3.851 s      (7.7 %), step = 295.5 ms     (591 m%)
    tran: time = 6.718 s     (13.4 %), step = 500 ms          (1 %)
    tran: time = 9.218 s     (18.4 %), step = 500 ms          (1 %)
    tran: time = 11.72 s     (23.4 %), step = 500 ms          (1 %)
    tran: time = 14.22 s     (28.4 %), step = 500 ms          (1 %)
    tran: time = 16.72 s     (33.4 %), step = 500 ms          (1 %)
    tran: time = 19.22 s     (38.4 %), step = 500 ms          (1 %)
    tran: time = 21.72 s     (43.4 %), step = 500 ms          (1 %)
    tran: time = 24.22 s     (48.4 %), step = 500 ms          (1 %)
    tran: time = 26.72 s     (53.4 %), step = 500 ms          (1 %)
    tran: time = 29.22 s     (58.4 %), step = 500 ms          (1 %)
    tran: time = 31.72 s     (63.4 %), step = 500 ms          (1 %)
    tran: time = 34.22 s     (68.4 %), step = 497.4 ms     (995 m%)
    tran: time = 36.3 s      (72.6 %), step = 174 ms       (348 m%)
    tran: time = 38.95 s     (77.9 %), step = 209.8 ms     (420 m%)
    tran: time = 41.28 s     (82.6 %), step = 448.4 ms     (897 m%)
    tran: time = 44.2 s      (88.4 %), step = 500 ms          (1 %)
    tran: time = 46.7 s      (93.4 %), step = 500 ms          (1 %)
    tran: time = 49.2 s      (98.4 %), step = 500 ms          (1 %)
Number of accepted tran steps =             653

Maximum value achieved for any signal of each quantity: 
V: V(vout_filt) = 3.3 V
I: I(V8:p) = 6.647 uA

~~~~~~~~~~~~~~~~~~~~~~~~~~~~~~~~~
Post-Transient Simulation Summary
~~~~~~~~~~~~~~~~~~~~~~~~~~~~~~~~~
   -   To further speed up simulation, consider
          add ++aps on command line
   -   Non-default settings that could significantly slow down simulation
          errpreset = conservative, default moderate
          reltol = 10e-06, default 100e-06 (conservative)
~~~~~~~~~~~~~~~~~~~~~~~~~~~~~~~~~


During simulation, the CPU load for active processors is :
         0 (41.0 %)      1 (45.9 %)      2 (38.0 %)      3 (18.5 %)
         4 (26.3 %)      5 (29.1 %)      6 (27.1 %)      7 (64.2 %)
         8 (85.7 %)      9 (16.0 %)     10 (29.3 %)     11 (37.0 %)
        12 (33.0 %)     13 (28.5 %)     14 (21.7 %)     15 (40.4 %)
        16 (21.8 %)     17 (39.8 %)     18 (55.0 %)     19 (37.3 %)
        20 (72.4 %)     21 (34.0 %)     22 (29.4 %)     23 (28.5 %)
        24 (35.9 %)     25 (24.9 %)     26 (24.8 %)     27 (55.9 %)
        28 (42.8 %)     29 (36.6 %)     30 (37.8 %)     31 (17.1 %)
        32 (27.6 %)     33 (31.2 %)     34 (41.5 %)     35 (37.7 %)
        36 (28.7 %)     37 (23.1 %)     38 (18.2 %)     39 (88.6 %)
        40 (50.7 %)     41 (32.6 %)     42 (12.9 %)     43 (30.4 %)
        44 (33.2 %)     45 (23.3 %)     46 (50.5 %)     47 (20.2 %)
        Total: 1725.9%
Initial condition solution time: CPU = 2.163 ms, elapsed = 2.17199 ms.
Intrinsic tran analysis time:    CPU = 362.201 ms, elapsed = 363.463 ms.
Total time required for tran analysis `tran': CPU = 366.788 ms, elapsed = 368.698 ms, util. = 99.5%.
Time accumulated: CPU = 41.8861 s, elapsed = 43.9606 s.
Peak resident memory used = 215 Mbytes.


Notice from spectre during transient analysis `tran', during Monte Carlo analysis `mc1'.
    34 warnings suppressed.

finalTimeOP: writing operating point information to rawfile.

Opening the PSF file ../psf/mc1_separate/100/finalTimeOP.info ...
modelParameter: writing model parameter values to rawfile.

Opening the PSF file ../psf/mc1_separate/100/modelParameter.info ...
element: writing instance parameter values to rawfile.

Opening the PSF file ../psf/mc1_separate/100/element.info ...
outputParameter: writing output parameter values to rawfile.

Opening the PSF file ../psf/mc1_separate/100/outputParameter.info ...
designParamVals: writing netlist parameters to rawfile.

Opening the PSFASCII file ../psf/mc1_separate/100/designParamVals.info ...
primitives: writing primitives to rawfile.

Opening the PSFASCII file ../psf/mc1_separate/100/primitives.info.primitives ...
subckts: writing subcircuits to rawfile.

Opening the PSFASCII file ../psf/mc1_separate/100/subckts.info.subckts ...
    mc1: iteration = 100          (100 %), step = 1            (1.01 %)
Total time required for montecarlo analysis `mc1': CPU = 41.436 s, elapsed = 42.9629 s, util. = 96.4%.
Time accumulated: CPU = 41.9128 s, elapsed = 43.9999 s.
Peak resident memory used = 215 Mbytes.

Licensing Information:
Lic Summary:
[09:34:47.037114] Cdslmd servers:3000@lic08.ug.kth.se:29000@lic06.ug.kth.se
[09:34:47.037146] Feature usage summary:
[09:34:47.037147] Virtuoso_Multi_mode_Simulation


Aggregate audit (9:34:47 AM, Thur Apr 16, 2026):
Time used: CPU = 41.9 s, elapsed = 44 s, util. = 95.3%.
Time spent in licensing: elapsed = 52 ms.
Peak memory used = 215 Mbytes.
Simulation started at: 9:34:03 AM, Thur Apr 16, 2026, ended at: 9:34:47 AM, Thur Apr 16, 2026, with elapsed time (wall clock): 44 s.
spectre completes with 0 errors, 522 warnings, and 310 notices.
