
Spectre (R) Circuit Simulator
Version 24.1.0.288.isr5 64bit -- 3 Apr 2025
Copyright (C) 1989-2025 Cadence Design Systems, Inc. All rights reserved worldwide. Cadence and Spectre are registered trademarks of Cadence Design Systems, Inc. All others are the property of their respective holders.

Includes RSA BSAFE(R) Cryptographic or Security Protocol Software from RSA Security, Inc.

User: davidevi   Host: il2244vt26_davidevi   HostID: 11AC2C00   PID: 248493
Memory  available: 3.0835 TB  physical: 3.2467 TB
Linux   : Rocky Linux release 8.10 (Green Obsidian)
CPU Type: Intel(R) Xeon(R) CPU E7-8857 v2 @ 3.00GHz
        Socket: Processors [Frequency]
        0:       0 [2999.9],  1 [3600.0],  2 [1200.0],  3 [2999.9],  4 [1200.0]
                 5 [1200.0],  6 [1200.0],  7 [2800.0],  8 [1200.0],  9 [1200.0]
                10 [1200.0], 11 [2800.0]
        1:      12 [2999.9], 13 [1700.0], 14 [2097.2], 15 [1200.0], 16 [1200.0]
                17 [2999.9], 18 [1200.0], 19 [1700.0], 20 [1200.0], 21 [2800.0]
                22 [3600.0], 23 [2999.9]
        2:      24 [1400.0], 25 [2999.9], 26 [1700.0], 27 [1200.0], 28 [2999.9]
                29 [1300.0], 30 [1200.0], 31 [1200.0], 32 [1400.0], 33 [1200.0]
                34 [1200.0], 35 [1200.0]
        3:      36 [2999.9], 37 [2300.0], 38 [2999.7], 39 [1200.0], 40 [1200.0]
                41 [1200.0], 42 [2300.0], 43 [1200.0], 44 [1200.0], 45 [2800.0]
                46 [1200.0], 47 [2900.0]
        
System load averages (1min, 5min, 15min) : 17.6 %, 13.7 %, 13.0 %
HPC is enabled


Simulating `input.scs' on il2244vt26_davidevi at 1:01:25 PM, Wed Mar 11, 2026 (process id: 248493).
Current working directory: /home/davidevi/Desktop/myproject/Sim/VGA_tb_new/spectre/schematic/netlist
Command line:
    /opt/tools/cadence/installs/SPECTRE241/tools/bin/spectre -64  \
        input.scs +escchars +log ../psf/spectre.out -format psfbin  \
        +rtsf -raw ../psf +aps +mt +lqtimeout 900 -maxw 5 -maxn 5  \
        +param /opt/pdk/ams/410/spectre/ams_range.lmts -env ade  \
        +adespetkn=adespe

Licensing Information:
[13:01:26.121706] Configured Lic search path (24.01-s002): 3000@lic08.ug.kth.se:29000@lic06.ug.kth.se

Licensing Information:
[13:01:26.169059] Periodic Lic check successful

Loading /opt/tools/cadence/installs/SPECTRE241/tools.lnx86/cmi/lib/64bit/5.0/libinfineon_sh.so ...
Loading /opt/tools/cadence/installs/SPECTRE241/tools.lnx86/cmi/lib/64bit/5.0/libphilips_I_sh.so ...
Loading /opt/tools/cadence/installs/SPECTRE241/tools.lnx86/cmi/lib/64bit/5.0/libphilips_sh.so ...
Loading /opt/tools/cadence/installs/SPECTRE241/tools.lnx86/cmi/lib/64bit/5.0/libsparam_sh.so ...
Loading /opt/tools/cadence/installs/SPECTRE241/tools.lnx86/cmi/lib/64bit/5.0/libstmodels_sh.so ...

Warning from spectre.
    WARNING (SPECTRE-691): This CPU processor does not support x86 advanced vector extensions instructions. This may affect math operations and slow down the simulation.

Reading file:  /home/davidevi/Desktop/myproject/Sim/VGA_tb_new/spectre/schematic/netlist/input.scs
Reading file:  /opt/pdk/ams/410/spectre/ams_range.lmts

Warning from spectre during read of parameter soft limits file `/opt/pdk/ams/410/spectre/ams_range.lmts', during circuit read-in.
    WARNING (SPECTRE-8360): line 1511: `ac' is an undefined primitive device.
    WARNING (SPECTRE-8360): line 1512: `ac' is an undefined primitive device.
    WARNING (SPECTRE-8360): line 1513: `ac' is an undefined primitive device.
    WARNING (SPECTRE-8360): line 1514: `ac' is an undefined primitive device.
    WARNING (SPECTRE-8360): line 1515: `ac' is an undefined primitive device.
        Further occurrences of this warning will be suppressed.

Reading file:  /opt/tools/cadence/installs/SPECTRE241/tools.lnx86/spectre/etc/configs/spectre.cfg
Reading file:  /opt/pdk/ams/410/spectre/c35/soac/soac.scs
Reading file:  /opt/pdk/ams/410/spectre/c35/soac/processOption.scs
Reading file:  /opt/pdk/ams/410/spectre/c35/soac/process.scs
Reading file:  /opt/pdk/ams/410/spectre/c35/soac/soac.va

Warning from spectre during AHDL read-in.
    WARNING (VACOMP-2435): The environment variable CDS_AHDLCMI_ENABLE is no longer supported. Therefore, the simulator will use the default compiled C code flow.

Reading link:  /opt/tools/cadence/installs/SPECTRE241/tools.lnx86/spectre/etc/ahdl/constants.h
Reading file:  /opt/tools/cadence/installs/SPECTRE241/tools.lnx86/spectre/etc/ahdl/constants.vams
Reading link:  /opt/tools/cadence/installs/SPECTRE241/tools.lnx86/spectre/etc/ahdl/discipline.h
Reading file:  /opt/tools/cadence/installs/SPECTRE241/tools.lnx86/spectre/etc/ahdl/disciplines.vams
Reading file:  /opt/pdk/ams/410/spectre/c35/processOption/C35B4C3.scs
Reading file:  /opt/pdk/ams/410/spectre/c35/soac/cmos53.scs
Reading file:  /opt/pdk/ams/410/spectre/c35/soac/res.scs
Reading file:  /opt/pdk/ams/410/spectre/c35/soac/cap.scs
Reading file:  /opt/pdk/ams/410/spectre/c35/soac/bip.scs
Reading file:  /opt/pdk/ams/410/spectre/c35/soac/ind.scs
Reading file:  /opt/pdk/ams/410/spectre/c35/soac/esddiode.scs
Reading file:  /home/davidevi/Desktop/myproject/VGA/VGA/veriloga/veriloga.va
Reading file:  /home/davidevi/Desktop/myproject/VGA/FILTER_V2/veriloga/veriloga.va
Time for NDB Parsing: CPU = 161.308 ms, elapsed = 366.921 ms.
Time accumulated: CPU = 322.122 ms, elapsed = 366.924 ms.
Peak resident memory used = 175 Mbytes.

Existing shared object for module VGA is up to date.
Installed compiled interface for VGA.
Existing shared object for module filter is up to date.
Installed compiled interface for filter.
Time for Elaboration: CPU = 30.097 ms, elapsed = 30.9439 ms.
Time accumulated: CPU = 352.354 ms, elapsed = 398.003 ms.
Peak resident memory used = 185 Mbytes.


Notice from spectre during hierarchy flattening.
    The value 'psf' specified for the 'checklimitdest' option will no longer be supported in future releases. Use 'spectre -h' to see other recommended values for the 'checklimitdest' option.


*****************************************************************************************
* 
* INFO: AMS_processOption = C35B4C3
* 
* INFO: Valid Modules  PIP VG5 HIRES
* 
*****************************************************************************************



Warning from spectre during hierarchy flattening.
    WARNING (SPECTRE-8527): There are some nodes and instances removed from the netlist topology check. Check the circuit and correct the topology. Or use preserve_inst to keep them if necessary.

***********************************************
  Total removed instances 3 ( dangling 3, terminals connected together 0)  

Warning from spectre during hierarchy flattening.
    WARNING (SPECTRE-8529): Dangling instance. V3_turbo_m2 is removed.
    WARNING (SPECTRE-8529): Dangling instance. V7_turbo_m3 is removed.
    WARNING (SPECTRE-8529): Dangling instance. V6 is removed.


  Total removed nodes 3 ( dangling nodes 3, floating nodes 0 )

Warning from spectre during hierarchy flattening.
    WARNING (SPECTRE-8530): Dangling node. net7 is removed.
    WARNING (SPECTRE-8530): Dangling node. net6 is removed.
    WARNING (SPECTRE-8530): Dangling node. net3 is removed.

***********************************************
Time for EDB Visiting: CPU = 3.251 ms, elapsed = 3.25108 ms.
Time accumulated: CPU = 355.752 ms, elapsed = 401.4 ms.
Peak resident memory used = 186 Mbytes.

Loading /opt/tools/cadence/installs/SPECTRE241/tools.lnx86/mdl/lib/64bit/libSpectreEH_sh.so ...

Warning from spectre during initial setup.
    WARNING (SPECTRE-16460): SOAC_cvarm_vspsub:Specified subcircuit master `cvarm' was not found.
    WARNING (SPECTRE-16462): SOAC_cvarm_vspsub:Error in specification of subcircuit master. Assert is ignored.
    WARNING (SPECTRE-16460): SOAC_cvarm_vbs:Specified subcircuit master `cvarm' was not found.
    WARNING (SPECTRE-16462): SOAC_cvarm_vbs:Error in specification of subcircuit master. Assert is ignored.
    WARNING (SPECTRE-16460): SOAC_cvarm_vgb:Specified subcircuit master `cvarm' was not found.
    WARNING (SPECTRE-16462): SOAC_cvarm_vgb:Error in specification of subcircuit master. Assert is ignored.
    WARNING (SPECTRE-16460): SOAC_cvart_vspsub:Specified subcircuit master `cvart' was not found.
    WARNING (SPECTRE-16462): SOAC_cvart_vspsub:Error in specification of subcircuit master. Assert is ignored.
    WARNING (SPECTRE-16460): SOAC_cvart_vbs:Specified subcircuit master `cvart' was not found.
        Further occurrences of this warning will be suppressed.
    WARNING (SPECTRE-16462): SOAC_cvart_vbs:Error in specification of subcircuit master. Assert is ignored.
        Further occurrences of this warning will be suppressed.
Notice from spectre during initial setup.
    Ignorevaref=yes is ignored since all nodes are connected to Verilog-A modules.
Notice from spectre during topology check.
    Only one connection to the following 5 nodes:
        vctrl<2>
        vctrl<1>
        vctrl<0>
        vout_filter
        vctrl_filter<1>
        Further occurrences of this notice will be suppressed.
Warning from spectre during topology check.
    WARNING (SPECTRE-690): No DC path from current source node `ibias' to ground. Gmin is installed to provide path, however this can lead to high voltage situation. Ensure to check the circuit for any design issues.
Notice from spectre during topology check.
    No DC path from node `vctrl<2>' to ground, Gmin installed to provide path.
    No DC path from node `vctrl<1>' to ground, Gmin installed to provide path.
    No DC path from node `vctrl<0>' to ground, Gmin installed to provide path.
    No DC path from node `vctrl_filter<1>' to ground, Gmin installed to provide path.
Notice from spectre during initial setup.
    Multithreading is disabled due to the size of the design being too small.


Netlist title:
        // Generated for: spectre


Global user options:
         psfversion = 1.4.0
            vabstol = 1e-06
            iabstol = 1e-12
               temp = 27
           homotopy = 5
              limit = delta
         compatible = spice2
               gmin = 1e-12
             rforce = 1
           maxnotes = 5
           maxwarns = 5
             digits = 5
               cols = 80
             pivrel = 0.001
           sensfile = ../psf/sens.output
     checklimitdest = psf
     enable_pre_ver = yes
      ignorezerovar = yes
               save = allpub
             reltol = 0.0001
               tnom = 27
             scalem = 1
              scale = 1

Scoped user options:

Circuit inventory:
              nodes 19
             filter 1     
            isource 1     
                VGA 1     
            vsource 12    

Analysis and control statement inventory:
                 ac 1     
                 dc 1     
               info 8     
               tran 1     

Output statements:
             .probe 0     
           .measure 0     
               save 0     

Design checks inventory:
          paramtest 1     
             assert 175   


Notice from spectre during initial setup.
    APS enabled.
    72 warnings suppressed.

Time for parsing: CPU = 12.279 ms, elapsed = 534.144 ms.
Time accumulated: CPU = 368.152 ms, elapsed = 935.664 ms.
Peak resident memory used = 193 Mbytes.

~~~~~~~~~~~~~~~~~~~~~~
Pre-Simulation Summary
~~~~~~~~~~~~~~~~~~~~~~
   -   (APS) Multi-threading. The recommended number of threads is 1, consider adding +mt=1 on command line.
~~~~~~~~~~~~~~~~~~~~~~

******************
DC Analysis `dcOp'
******************

Notice from spectre during DC analysis `dcOp'.
    No checklimit analysis defined for asserts. A default checklimit analysis 'SpectreChecklimitAnal' has been created with all asserts enabled.


Opening the PSF file ../psf/dcOp.dc ...
Important parameter values:
    reltol = 100e-06
    abstol(V) = 1 uV
    abstol(I) = 1 pA
    temp = 27 C
    tnom = 27 C
    tempeffects = all
    gmindc = 1 pS
    rabsshort = 1 mOhm

Notice from spectre during DC analysis `dcOp'.
    GminDC = 1 pS is large enough to noticeably affect the DC solution.
        dV(ibias) = -1 TV
        Use the `gmin_check' option to eliminate or expand this report.


Maximum value achieved for any signal of each quantity: 
V: V(ibias) = 1 TV
I: I(V11:p) = 0 A
Convergence achieved in 12 iterations.
DC simulation time: CPU = 3.788 ms, elapsed = 5.46789 ms.
Total time required for dc analysis `dcOp': CPU = 3.9 ms, elapsed = 5.56993 ms, util. = 70%.
Time accumulated: CPU = 395.17 ms, elapsed = 965.217 ms.
Peak resident memory used = 197 Mbytes.

dcOpInfo: writing operating point information to rawfile.

Opening the PSF file ../psf/dcOpInfo.info ...

*************************************************
Transient Analysis `tran': time = (0 s -> 200 us)
*************************************************

Notice from spectre during IC analysis, during transient analysis `tran'.
    GminDC = 1 pS is large enough to noticeably affect the DC solution.
        dV(ibias) = -1 TV
        Use the `gmin_check' option to eliminate or expand this report.

Convergence achieved in 2 iterations.
DC simulation time: CPU = 239 us, elapsed = 240.088 us.

Opening the PSF file ../psf/tran.tran.tran ...
Important parameter values:
    start = 0 s
    outputstart = 0 s
    stop = 200 us
    step = 200 ns
    maxstep = 2 us
    ic = all
    useprevic = no
    skipdc = no
    reltol = 10e-06
    abstol(V) = 1 uV
    abstol(I) = 1 pA
    temp = 27 C
    tnom = 27 C
    tempeffects = all
    errpreset = conservative
    method = gear2only
    lteratio = 10
    relref = alllocal
    cmin = 0 F
    gmin = 1 pS
    rabsshort = 1 mOhm


Notice from spectre during transient analysis `tran'.
    Multithreading is disabled due to the size of the design being too small.


Output and IC/nodeset summary:
                 save   6       (current)
                 save   13      (voltage)

    tran: time = 5 us         (2.5 %), step = 2 us            (1 %)
    tran: time = 15 us        (7.5 %), step = 2 us            (1 %)
    tran: time = 25 us       (12.5 %), step = 2 us            (1 %)
    tran: time = 35 us       (17.5 %), step = 2 us            (1 %)
    tran: time = 45 us       (22.5 %), step = 2 us            (1 %)
    tran: time = 55 us       (27.5 %), step = 2 us            (1 %)
    tran: time = 65 us       (32.5 %), step = 2 us            (1 %)
    tran: time = 77 us       (38.5 %), step = 2 us            (1 %)
    tran: time = 87 us       (43.5 %), step = 2 us            (1 %)
    tran: time = 97 us       (48.5 %), step = 2 us            (1 %)
    tran: time = 107 us      (53.5 %), step = 2 us            (1 %)
    tran: time = 117 us      (58.5 %), step = 2 us            (1 %)
    tran: time = 127 us      (63.5 %), step = 2 us            (1 %)
    tran: time = 137 us      (68.5 %), step = 2 us            (1 %)
    tran: time = 147 us      (73.5 %), step = 2 us            (1 %)
    tran: time = 157 us      (78.5 %), step = 2 us            (1 %)
    tran: time = 167 us      (83.5 %), step = 2 us            (1 %)
    tran: time = 177 us      (88.5 %), step = 2 us            (1 %)
    tran: time = 187 us      (93.5 %), step = 2 us            (1 %)
    tran: time = 197 us      (98.5 %), step = 2 us            (1 %)
Number of accepted tran steps =             103

Maximum value achieved for any signal of each quantity: 
V: V(ibias) = 1 TV
I: I(V11:p) = 0 A
Maximum value of each quantity, excluding dangling current sources:
V: V(vctrl_filter<0>) = 3.3 V
I: I(V11:p) = 0 A

~~~~~~~~~~~~~~~~~~~~~~~~~~~~~~~~~
Post-Transient Simulation Summary
~~~~~~~~~~~~~~~~~~~~~~~~~~~~~~~~~
   -   To further speed up simulation, consider
          add ++aps on command line
   -   Non-default settings that could significantly slow down simulation
          errpreset = conservative, default moderate
          reltol = 10e-06, default 100e-06 (conservative)
   -   The circuit contains signals of the voltage > 10V, consider to set highvoltage=yes to get better accuracy and convergence ability.
~~~~~~~~~~~~~~~~~~~~~~~~~~~~~~~~~


During simulation, the CPU load for active processors is :
         0 (3.3 %)       1 (8.7 %)       2 (2.2 %)       3 (100.0 %)
         4 (3.3 %)       5 (4.4 %)       6 (4.5 %)       7 (6.5 %)
         8 (9.9 %)       9 (6.5 %)      10 (3.3 %)      11 (6.7 %)
        12 (100.0 %)    13 (3.3 %)      14 (2.2 %)      15 (7.6 %)
        16 (9.8 %)      17 (5.5 %)      18 (4.3 %)      19 (17.6 %)
        20 (1.1 %)      21 (4.3 %)      22 (17.2 %)     23 (6.5 %)
        24 (1.1 %)      25 (100.0 %)    26 (1.1 %)      28 (100.0 %)
        29 (2.2 %)      34 (2.2 %)      35 (2.2 %)      36 (100.0 %)
        37 (27.0 %)     38 (3.3 %)      39 (3.3 %)      40 (8.7 %)
        41 (7.6 %)      42 (4.4 %)      43 (44.0 %)     44 (12.2 %)
        45 (5.5 %)      46 (3.3 %)      47 (7.7 %)      
        Total: 774.3%
Initial condition solution time: CPU = 270 us, elapsed = 272.989 us.
Intrinsic tran analysis time:    CPU = 10.348 ms, elapsed = 11.795 ms.
Total time required for tran analysis `tran': CPU = 11.914 ms, elapsed = 13.6271 ms, util. = 87.4%.
Time accumulated: CPU = 409.292 ms, elapsed = 983.176 ms.
Peak resident memory used = 198 Mbytes.

finalTimeOP: writing operating point information to rawfile.

Opening the PSF file ../psf/finalTimeOP.info ...

*******************************************
AC Analysis `ac': freq = (10 mHz -> 10 GHz)
*******************************************

Notice from spectre during DC analysis, during AC analysis `ac'.
    GminDC = 1 pS is large enough to noticeably affect the DC solution.
        dV(ibias) = -1 TV
        Use the `gmin_check' option to eliminate or expand this report.

Convergence achieved in 12 iterations.
DC simulation time: CPU = 322 us, elapsed = 322.104 us.

Opening the PSF file ../psf/ac.ac ...
    ac: freq = 30.2 mHz       (4 %), step = 12.82 mHz       (2 %)
    ac: freq = 52.48 mHz      (6 %), step = 22.28 mHz       (2 %)
    ac: freq = 91.2 mHz       (8 %), step = 38.72 mHz       (2 %)
    ac: freq = 158.5 mHz     (10 %), step = 67.29 mHz       (2 %)
    ac: freq = 275.4 mHz     (12 %), step = 116.9 mHz       (2 %)
    ac: freq = 478.6 mHz     (14 %), step = 203.2 mHz       (2 %)
    ac: freq = 831.8 mHz     (16 %), step = 353.1 mHz       (2 %)
    ac: freq = 1.445 Hz      (18 %), step = 613.7 mHz       (2 %)
    ac: freq = 2.512 Hz      (20 %), step = 1.066 Hz        (2 %)
    ac: freq = 4.365 Hz      (22 %), step = 1.853 Hz        (2 %)
    ac: freq = 7.586 Hz      (24 %), step = 3.221 Hz        (2 %)
    ac: freq = 13.18 Hz      (26 %), step = 5.597 Hz        (2 %)
    ac: freq = 22.91 Hz      (28 %), step = 9.726 Hz        (2 %)
    ac: freq = 39.81 Hz      (30 %), step = 16.9 Hz         (2 %)
    ac: freq = 69.18 Hz      (32 %), step = 29.37 Hz        (2 %)
    ac: freq = 120.2 Hz      (34 %), step = 51.04 Hz        (2 %)
    ac: freq = 208.9 Hz      (36 %), step = 88.7 Hz         (2 %)
    ac: freq = 363.1 Hz      (38 %), step = 154.1 Hz        (2 %)
    ac: freq = 631 Hz        (40 %), step = 267.9 Hz        (2 %)
    ac: freq = 1.096 kHz     (42 %), step = 465.5 Hz        (2 %)
    ac: freq = 1.905 kHz     (44 %), step = 809 Hz          (2 %)
    ac: freq = 3.311 kHz     (46 %), step = 1.406 kHz       (2 %)
    ac: freq = 5.754 kHz     (48 %), step = 2.443 kHz       (2 %)
    ac: freq = 10 kHz        (50 %), step = 4.246 kHz       (2 %)
    ac: freq = 17.38 kHz     (52 %), step = 7.378 kHz       (2 %)
    ac: freq = 30.2 kHz      (54 %), step = 12.82 kHz       (2 %)
    ac: freq = 52.48 kHz     (56 %), step = 22.28 kHz       (2 %)
    ac: freq = 91.2 kHz      (58 %), step = 38.72 kHz       (2 %)
    ac: freq = 158.5 kHz     (60 %), step = 67.29 kHz       (2 %)
    ac: freq = 275.4 kHz     (62 %), step = 116.9 kHz       (2 %)
    ac: freq = 478.6 kHz     (64 %), step = 203.2 kHz       (2 %)
    ac: freq = 831.8 kHz     (66 %), step = 353.1 kHz       (2 %)
    ac: freq = 1.445 MHz     (68 %), step = 613.7 kHz       (2 %)
    ac: freq = 2.512 MHz     (70 %), step = 1.066 MHz       (2 %)
    ac: freq = 4.365 MHz     (72 %), step = 1.853 MHz       (2 %)
    ac: freq = 7.586 MHz     (74 %), step = 3.221 MHz       (2 %)
    ac: freq = 13.18 MHz     (76 %), step = 5.597 MHz       (2 %)
    ac: freq = 22.91 MHz     (78 %), step = 9.726 MHz       (2 %)
    ac: freq = 39.81 MHz     (80 %), step = 16.9 MHz        (2 %)
    ac: freq = 69.18 MHz     (82 %), step = 29.37 MHz       (2 %)
    ac: freq = 120.2 MHz     (84 %), step = 51.04 MHz       (2 %)
    ac: freq = 208.9 MHz     (86 %), step = 88.7 MHz        (2 %)
    ac: freq = 363.1 MHz     (88 %), step = 154.1 MHz       (2 %)
    ac: freq = 631 MHz       (90 %), step = 267.9 MHz       (2 %)
    ac: freq = 1.096 GHz     (92 %), step = 465.5 MHz       (2 %)
    ac: freq = 1.905 GHz     (94 %), step = 809 MHz         (2 %)
    ac: freq = 3.311 GHz     (96 %), step = 1.406 GHz       (2 %)
    ac: freq = 5.754 GHz     (98 %), step = 2.443 GHz       (2 %)
    ac: freq = 10 GHz       (100 %), step = 4.246 GHz       (2 %)
Accumulated DC solution time =            366.211 us.
Intrinsic ac analysis time =              4.83179 ms.
Total time required for ac analysis `ac': CPU = 4.637 ms, elapsed = 5.23806 ms, util. = 88.5%.
Time accumulated: CPU = 415.357 ms, elapsed = 991.348 ms.
Peak resident memory used = 198 Mbytes.

modelParameter: writing model parameter values to rawfile.

Opening the PSF file ../psf/modelParameter.info ...
element: writing instance parameter values to rawfile.

Opening the PSF file ../psf/element.info ...
outputParameter: writing output parameter values to rawfile.

Opening the PSF file ../psf/outputParameter.info ...
designParamVals: writing netlist parameters to rawfile.

Opening the PSFASCII file ../psf/designParamVals.info ...
primitives: writing primitives to rawfile.

Opening the PSFASCII file ../psf/primitives.info.primitives ...
subckts: writing subcircuits to rawfile.

Opening the PSFASCII file ../psf/subckts.info.subckts ...
Licensing Information:
Lic Summary:
[13:01:26.421474] Cdslmd servers:3000@lic08.ug.kth.se:29000@lic06.ug.kth.se
[13:01:26.945801] Feature usage summary:
[13:01:26.945802] Virtuoso_Multi_mode_Simulation


Aggregate audit (1:01:26 PM, Wed Mar 11, 2026):
Time used: CPU = 430 ms, elapsed = 1.01 s, util. = 42.5%.
Time spent in licensing: elapsed = 188 ms, percentage of total = 18.6%.
Peak memory used = 200 Mbytes.
Simulation started at: 1:01:25 PM, Wed Mar 11, 2026, ended at: 1:01:26 PM, Wed Mar 11, 2026, with elapsed time (wall clock): 1.01 s.
spectre completes with 0 errors, 25 warnings, and 16 notices.
