
Spectre (R) Circuit Simulator
Version 24.1.0.288.isr5 64bit -- 3 Apr 2025
Copyright (C) 1989-2025 Cadence Design Systems, Inc. All rights reserved worldwide. Cadence and Spectre are registered trademarks of Cadence Design Systems, Inc. All others are the property of their respective holders.

Includes RSA BSAFE(R) Cryptographic or Security Protocol Software from RSA Security, Inc.

User: davidevi   Host: il2244vt26_davidevi   HostID: 11AC2C00   PID: 596629
Memory  available: 3.0656 TB  physical: 3.2467 TB
Linux   : Rocky Linux release 8.10 (Green Obsidian)
CPU Type: Intel(R) Xeon(R) CPU E7-8857 v2 @ 3.00GHz
        Socket: Processors [Frequency]
        0:       0 [2999.9],  1 [2500.0],  2 [3600.0],  3 [2999.9],  4 [3600.0]
                 5 [2999.9],  6 [2999.9],  7 [2900.0],  8 [2999.9],  9 [2999.9]
                10 [2600.0], 11 [1200.0]
        1:      12 [3600.0], 13 [3389.1], 14 [3600.0], 15 [3600.0], 16 [3399.5]
                17 [3600.0], 18 [3600.0], 19 [3600.0], 20 [3600.0], 21 [3600.0]
                22 [3395.6], 23 [3099.4]
        2:      24 [2999.9], 25 [2600.0], 26 [3600.0], 27 [1200.0], 28 [2999.9]
                29 [3600.0], 30 [3600.0], 31 [1200.0], 32 [3400.0], 33 [3600.0]
                34 [2999.9], 35 [3600.0]
        3:      36 [2999.9], 37 [1300.0], 38 [1200.0], 39 [2999.9], 40 [1200.0]
                41 [2500.0], 42 [2900.0], 43 [3600.0], 44 [3600.0], 45 [2600.0]
                46 [2600.0], 47 [2999.9]
        
System load averages (1min, 5min, 15min) : 22.1 %, 16.1 %, 15.2 %
HPC is enabled


Simulating `input.scs' on il2244vt26_davidevi at 10:58:09 AM, Mon Mar 23, 2026 (process id: 596629).
Current working directory: /home/davidevi/Desktop/myproject/Sim/ECG_IA/ecg_vga_tb/adexl/results/data/MonteCarlo.3/14/MC/groupRunDataDir/netlist
Command line:
    /opt/tools/cadence/installs/SPECTRE241/tools/bin/spectre -64  \
        input.scs +escchars +log ../psf/spectre.out -format psfbin  \
        +rtsf -raw ../psf +aps +mt +lqtimeout 900 -maxw 5 -maxn 5  \
        +param /opt/pdk/ams/410/spectre/ams_range.lmts -env ade  \
        -ahdllibdir  \
        /home/davidevi/Desktop/myproject/Sim/ECG_IA/ecg_vga_tb/adexl/results/data/MonteCarlo.3/sharedData/Job173/ahdl/input.ahdlSimDB  \
        +logstatus  \
        +adespetkn=0001089D13A302B663E41FB550AF0DF415A679A322D5069144BF588C12F604E07EF416DC01A319B562BB63D35EED18A445A309DB05C2229C7CF92D8770D24F9251AB79D15D9175FF34986BDD0AF002BA50FD7FD707E002A700AC1C831CFE42E30EAE79D12DF874D3349879D118F874D3349810100447686C5D590000366A

Simulation Id: lwKu8kHaVOSk1ee3
Licensing Information:
[10:58:09.121786] Configured Lic search path (24.01-s002): 3000@lic08.ug.kth.se:29000@lic06.ug.kth.se

Licensing Information:
[10:58:09.002977] Periodic Lic check successful

Loading /opt/tools/cadence/installs/SPECTRE241/tools.lnx86/cmi/lib/64bit/5.0/libinfineon_sh.so ...
Loading /opt/tools/cadence/installs/SPECTRE241/tools.lnx86/cmi/lib/64bit/5.0/libphilips_I_sh.so ...
Loading /opt/tools/cadence/installs/SPECTRE241/tools.lnx86/cmi/lib/64bit/5.0/libphilips_sh.so ...
Loading /opt/tools/cadence/installs/SPECTRE241/tools.lnx86/cmi/lib/64bit/5.0/libsparam_sh.so ...
Loading /opt/tools/cadence/installs/SPECTRE241/tools.lnx86/cmi/lib/64bit/5.0/libstmodels_sh.so ...

Warning from spectre.
    WARNING (SPECTRE-691): This CPU processor does not support x86 advanced vector extensions instructions. This may affect math operations and slow down the simulation.

Reading file:  /home/davidevi/Desktop/myproject/Sim/ECG_IA/ecg_vga_tb/adexl/results/data/MonteCarlo.3/14/MC/groupRunDataDir/netlist/input.scs
Reading file:  /opt/pdk/ams/410/spectre/ams_range.lmts

Warning from spectre during read of parameter soft limits file `/opt/pdk/ams/410/spectre/ams_range.lmts', during circuit read-in.
    WARNING (SPECTRE-8360): line 1511: `ac' is an undefined primitive device.
    WARNING (SPECTRE-8360): line 1512: `ac' is an undefined primitive device.
    WARNING (SPECTRE-8360): line 1513: `ac' is an undefined primitive device.
    WARNING (SPECTRE-8360): line 1514: `ac' is an undefined primitive device.
    WARNING (SPECTRE-8360): line 1515: `ac' is an undefined primitive device.
        Further occurrences of this warning will be suppressed.

Reading file:  /opt/tools/cadence/installs/SPECTRE241/tools.lnx86/spectre/etc/configs/spectre.cfg
Reading file:  /opt/pdk/ams/410/spectre/c35/soac/soac.scs
Reading file:  /opt/pdk/ams/410/spectre/c35/soac/processOption.scs
Reading file:  /opt/pdk/ams/410/spectre/c35/soac/process.scs
Reading file:  /opt/pdk/ams/410/spectre/c35/soac/soac.va

Warning from spectre during AHDL read-in.
    WARNING (VACOMP-2435): The environment variable CDS_AHDLCMI_ENABLE is no longer supported. Therefore, the simulator will use the default compiled C code flow.

Reading link:  /opt/tools/cadence/installs/SPECTRE241/tools.lnx86/spectre/etc/ahdl/constants.h
Reading file:  /opt/tools/cadence/installs/SPECTRE241/tools.lnx86/spectre/etc/ahdl/constants.vams
Reading link:  /opt/tools/cadence/installs/SPECTRE241/tools.lnx86/spectre/etc/ahdl/discipline.h
Reading file:  /opt/tools/cadence/installs/SPECTRE241/tools.lnx86/spectre/etc/ahdl/disciplines.vams
Reading file:  /opt/pdk/ams/410/spectre/c35/processOption/C35B4C3.scs
Reading file:  /opt/pdk/ams/410/spectre/c35/soac/cmos53.scs
Reading file:  /opt/pdk/ams/410/spectre/c35/soac/res.scs
Reading file:  /opt/pdk/ams/410/spectre/c35/soac/cap.scs
Reading file:  /opt/pdk/ams/410/spectre/c35/soac/bip.scs
Reading file:  /opt/pdk/ams/410/spectre/c35/soac/ind.scs
Reading file:  /opt/pdk/ams/410/spectre/c35/soac/esddiode.scs
Time for NDB Parsing: CPU = 175.625 ms, elapsed = 340.682 ms.
Time accumulated: CPU = 389.957 ms, elapsed = 340.685 ms.
Peak resident memory used = 175 Mbytes.

Existing shared object for module modn_ahdl is up to date.
Installed compiled interface for modn_ahdl.
Existing shared object for module rpolyh_ahdl is up to date.
Installed compiled interface for rpolyh_ahdl.
Existing shared object for module cpoly_ahdl is up to date.
Installed compiled interface for cpoly_ahdl.
Existing shared object for module modp_ahdl is up to date.
Installed compiled interface for modp_ahdl.
Opening directory /home/davidevi/Desktop/myproject/Sim/ECG_IA/ecg_vga_tb/adexl/results/data/MonteCarlo.3/sharedData/Job173/ahdl/input.ahdlSimDB/input.ahdlSimDB/ (775)
Created directory /home/davidevi/Desktop/myproject/Sim/ECG_IA/ecg_vga_tb/adexl/results/data/MonteCarlo.3/sharedData/Job173/ahdl/input.ahdlSimDB/input.ahdlSimDB//bsource_fcab9d.va.bsource_fcab9d.ahdlcmi/ (775)
Created directory /home/davidevi/Desktop/myproject/Sim/ECG_IA/ecg_vga_tb/adexl/results/data/MonteCarlo.3/sharedData/Job173/ahdl/input.ahdlSimDB/input.ahdlSimDB//bsource_fcab9d.va.bsource_fcab9d.ahdlcmi/Linux-64/ (775)
Compiling ahdlcmi module library for bsource_fcab9d.
Finished compilation in 1.8 s (elapsed) for bsource_fcab9d.
Installed compiled interface for bsource_fcab9d.
Time for Elaboration: CPU = 193.64 ms, elapsed = 2.11372 s.
Time accumulated: CPU = 583.796 ms, elapsed = 2.4546 s.
Peak resident memory used = 197 Mbytes.


Notice from spectre during hierarchy flattening.
    The value 'psf' specified for the 'checklimitdest' option will no longer be supported in future releases. Use 'spectre -h' to see other recommended values for the 'checklimitdest' option.


*****************************************************************************************
* 
* INFO: AMS_processOption = C35B4C3
* 
* INFO: Valid Modules  PIP VG5 HIRES
* 
*****************************************************************************************



Warning from spectre during hierarchy flattening.
    WARNING (SPECTRE-8527): There are some nodes and instances removed from the netlist topology check. Check the circuit and correct the topology. Or use preserve_inst to keep them if necessary.

***********************************************
  Total removed instances 2 ( dangling 0, terminals connected together 2)  

Warning from spectre during hierarchy flattening.
    WARNING (SPECTRE-8528): The I0.C5.C1 device is removed because its terminals are connected together. Check the device in the netlist file to ensure that this warning can be ignored.
    WARNING (SPECTRE-8528): The I0.MP8 device is removed because its terminals are connected together. Check the device in the netlist file to ensure that this warning can be ignored.


  Total removed nodes 0 ( dangling nodes 0, floating nodes 0 )
***********************************************
Time for EDB Visiting: CPU = 8.262 ms, elapsed = 13.593 ms.
Time accumulated: CPU = 592.318 ms, elapsed = 2.46845 s.
Peak resident memory used = 200 Mbytes.

Loading /opt/tools/cadence/installs/SPECTRE241/tools.lnx86/mdl/lib/64bit/libSpectreEH_sh.so ...

Warning from spectre during initial setup.
    WARNING (SPECTRE-16460): SOAC_cvarm_vspsub:Specified subcircuit master `cvarm' was not found.
    WARNING (SPECTRE-16462): SOAC_cvarm_vspsub:Error in specification of subcircuit master. Assert is ignored.
    WARNING (SPECTRE-16460): SOAC_cvarm_vbs:Specified subcircuit master `cvarm' was not found.
    WARNING (SPECTRE-16462): SOAC_cvarm_vbs:Error in specification of subcircuit master. Assert is ignored.
    WARNING (SPECTRE-16460): SOAC_cvarm_vgb:Specified subcircuit master `cvarm' was not found.
    WARNING (SPECTRE-16462): SOAC_cvarm_vgb:Error in specification of subcircuit master. Assert is ignored.
    WARNING (SPECTRE-16460): SOAC_cvart_vspsub:Specified subcircuit master `cvart' was not found.
    WARNING (SPECTRE-16462): SOAC_cvart_vspsub:Error in specification of subcircuit master. Assert is ignored.
    WARNING (SPECTRE-16460): SOAC_cvart_vbs:Specified subcircuit master `cvart' was not found.
        Further occurrences of this warning will be suppressed.
    WARNING (SPECTRE-16462): SOAC_cvart_vbs:Error in specification of subcircuit master. Assert is ignored.
        Further occurrences of this warning will be suppressed.
Notice from spectre during topology check.
    Only one connection to the following 52 nodes:
        I0.MN9.psub!
        I0.MN7.psub!
        I0.MN17.psub!
        I0.MN16.psub!
        I0.MN15.psub!
        Further occurrences of this notice will be suppressed.
Notice from spectre during initial setup.
    Multithreading is disabled due to the size of the design being too small.


Netlist title:
        // Point Netlist Generated on: Mar 23 10:58:08 2026


Global user options:
         psfversion = 1.4.0
            vabstol = 1e-06
            iabstol = 1e-12
               temp = 27
           homotopy = 5
              limit = delta
         compatible = spice2
               gmin = 1e-12
             rforce = 1
           maxnotes = 5
           maxwarns = 5
             digits = 5
               cols = 80
             pivrel = 0.001
           sensfile = ../psf/sens.output
     checklimitdest = psf
     enable_pre_ver = yes
      ignorezerovar = yes
               save = allpub
             reltol = 0.0001
               tnom = 27
             scalem = 1
              scale = 1

Scoped user options:

Circuit inventory:
              nodes 81
            bsim3v3 31    
     bsource_fcab9d 2     
          capacitor 42    
         cpoly_ahdl 19    
            isource 1     
          modn_ahdl 16    
          modp_ahdl 15    
           resistor 1     
        rpolyh_ahdl 2     
            vsource 7     

Analysis and control statement inventory:
                 ac 1     
                 dc 1     
               info 8     
         montecarlo 1     
              noise 1     
                 pz 1     
               tran 1     

Output statements:
             .probe 0     
           .measure 0     
               save 0     

Design checks inventory:
          paramtest 53    
             assert 175   


Notice from spectre during initial setup.
    APS enabled.
    1 notice suppressed.
    72 warnings suppressed.

Time for parsing: CPU = 16.391 ms, elapsed = 586.348 ms.
Time accumulated: CPU = 608.807 ms, elapsed = 3.0549 s.
Peak resident memory used = 205 Mbytes.

~~~~~~~~~~~~~~~~~~~~~~
Pre-Simulation Summary
~~~~~~~~~~~~~~~~~~~~~~
   -   (APS) Multi-threading. The recommended number of threads is 1, consider adding +mt=1 on command line.
~~~~~~~~~~~~~~~~~~~~~~

**************************************************
Monte Carlo Analysis `mc1': iteration = (14 -> 26)
**************************************************
Important parameter values:
    seed = 12345
    sampling = lds
    variations = all
    firstrun = 14
    numruns = 13
    nullmfactorcorrelation = no
    donominal = no
    method = standard
Opening iteration number and data-directory mapping file:  /home/davidevi/Desktop/myproject/Sim/ECG_IA/ecg_vga_tb/adexl/results/data/MonteCarlo.3/14/MC/groupRunDataDir/netlist/../psf/mc1.mapping

Statistical parameters:
    Defined process parameters: 629
    Defined mismatch parameters (subckt based): 86
    Non-referenced mismatch parameters: 80
    Number of random variables: 712
    Gaussian truncation for process parameters: 4.00 sigma
    Gaussian truncation for mismatch parameters: 4.00 sigma


**** Skipping runs 1 to 13 for `mc1'


Opening the PSF file ../psf/mc1_dcOp.montecarlo ...

Opening the PSF file ../psf/mc1_dcOpInfo.montecarlo ...

Opening the PSF file ../psf/mc1_pz.montecarlo ...

Opening the PSF file ../psf/mc1_tran.montecarlo ...

Opening the PSF file ../psf/mc1_finalTimeOP.montecarlo ...

Opening the PSF file ../psf/mc1_ac.montecarlo ...

Opening the PSF file ../psf/mc1_noise.montecarlo ...

Opening the PSF file ../psf/mc1_modelParameter.montecarlo ...

Opening the PSF file ../psf/mc1_element.montecarlo ...

Opening the PSF file ../psf/mc1_outputParameter.montecarlo ...

Opening the PSF file ../psf/mc1_designParamVals.montecarlo ...

Opening the PSF file ../psf/mc1_primitives.montecarlo ...

Opening the PSF file ../psf/mc1_subckts.montecarlo ...

**** Performing monte carlo loop for `mc1'

14   0.00% 

*****************************************************************************************
* 
* INFO: AMS_processOption = C35B4C3
* 
* INFO: Valid Modules  PIP VG5 HIRES
* 
*****************************************************************************************


******************
DC Analysis `dcOp'
******************

Notice from spectre at iteration = 14 during DC analysis `dcOp', during Monte Carlo analysis `mc1'.
    No checklimit analysis defined for asserts. A default checklimit analysis 'SpectreChecklimitAnal' has been created with all asserts enabled.


Opening the PSF file ../psf/mc1_separate/014/dcOp.dc ...
Important parameter values:
    reltol = 100e-06
    abstol(V) = 1 uV
    abstol(I) = 1 pA
    temp = 27 C
    tnom = 27 C
    tempeffects = all
    gmindc = 1 pS
    rabsshort = 1 mOhm

Notice from spectre at iteration = 14 during DC analysis `dcOp', during Monte Carlo analysis `mc1'.
    Bad pivoting is found during DC analysis. Option dc_pivot_check=yes is recommended for possible improvement of convergence.


Maximum value achieved for any signal of each quantity: 
V: V(net2) = 3.3 V
I: I(V0:p) = 6.441 uA
Maximum value of each quantity, excluding Verilog-A modules or dangling current sources:
V: V(VOUT2) = 1.602 V
I: I(V0:p) = 6.441 uA

Warning from spectre at iteration = 14 during check, during DC analysis `dcOp', during Monte Carlo analysis `mc1'.
    WARNING (CMI-2943): Parameter checks have been ignored because the valid value for parameter 'trise' could not be found in 'C1'.
    WARNING (CMI-2943): Parameter checks have been ignored because the valid value for parameter 'trise' could not be found in 'I0.C9<2>.C1'.
    WARNING (CMI-2943): Parameter checks have been ignored because the valid value for parameter 'trise' could not be found in 'I0.C9<1>.C1'.
    WARNING (CMI-2943): Parameter checks have been ignored because the valid value for parameter 'trise' could not be found in 'I0.C9<0>.C1'.
    WARNING (CMI-2943): Parameter checks have been ignored because the valid value for parameter 'trise' could not be found in 'I0.C4.C1'.
        Further occurrences of this warning will be suppressed.

Convergence achieved in 19 iterations.
DC simulation time: CPU = 77.661 ms, elapsed = 81.1989 ms.
Total time required for dc analysis `dcOp': CPU = 78.306 ms, elapsed = 81.8431 ms, util. = 95.7%.
Time accumulated: CPU = 761.262 ms, elapsed = 3.21892 s.
Peak resident memory used = 216 Mbytes.


Notice from spectre at iteration = 14 during Monte Carlo analysis `mc1'.
    37 warnings suppressed.

dcOpInfo: writing operating point information to rawfile.

Opening the PSF file ../psf/mc1_separate/014/dcOpInfo.info ...

****************
PZ Analysis `pz'
****************

Warning from spectre at iteration = 14 during PZ analysis `pz', during Monte Carlo analysis `mc1'.
    WARNING: BSIM3v3 MOS Transistor - frequency dependent components are present in the circuit, approximated as AC equivalents at 1.000000e+00Hz for pz analysis.
Notice from spectre at iteration = 14 during DC analysis, during PZ analysis `pz', during Monte Carlo analysis `mc1'.
    Bad pivoting is found during DC analysis. Option dc_pivot_check=yes is recommended for possible improvement of convergence.
Warning from spectre at iteration = 14 during check, during DC analysis, during PZ analysis `pz', during Monte Carlo analysis `mc1'.
    WARNING (CMI-2943): Parameter checks have been ignored because the valid value for parameter 'trise' could not be found in 'C1'.
    WARNING (CMI-2943): Parameter checks have been ignored because the valid value for parameter 'trise' could not be found in 'I0.C9<2>.C1'.
    WARNING (CMI-2943): Parameter checks have been ignored because the valid value for parameter 'trise' could not be found in 'I0.C9<1>.C1'.
    WARNING (CMI-2943): Parameter checks have been ignored because the valid value for parameter 'trise' could not be found in 'I0.C9<0>.C1'.
    WARNING (CMI-2943): Parameter checks have been ignored because the valid value for parameter 'trise' could not be found in 'I0.C4.C1'.
        Further occurrences of this warning will be suppressed.

Convergence achieved in 19 iterations.
DC simulation time: CPU = 3.039 ms, elapsed = 3.03793 ms.

Opening the PSF file ../psf/mc1_separate/014/pz.pz ...
Convergence achieved in 2 iterations.
DC simulation time: CPU = 728 us, elapsed = 728.846 us.
                      Poles (Hz)

           Real                       Imaginary                 Qfactor

   1   -3.75546e-02                  0.00000e+00              5.00000e-01 
   2   -5.91145e+01                  0.00000e+00              5.00000e-01 
   3   -5.93379e+01                  0.00000e+00              5.00000e-01 
   4   -6.06575e+01                  0.00000e+00              5.00000e-01 
   5   -2.29168e+04                  0.00000e+00              5.00000e-01 
   6   -3.42135e+04                  0.00000e+00              5.00000e-01 
   7   -6.43367e+05                  0.00000e+00              5.00000e-01 
   8   -2.83516e+06                  0.00000e+00              5.00000e-01 
   9   -5.06215e+06              +/- 7.37558e+06              8.83581e-01 
  10   -4.98875e+07                  0.00000e+00              5.00000e-01 
  11   -1.06708e+08                  0.00000e+00              5.00000e-01 
  12   -1.76587e+08                  0.00000e+00              5.00000e-01 
  13   -2.92938e+08                  0.00000e+00              5.00000e-01 
  14   -1.15439e+11                  0.00000e+00              5.00000e-01 
  15   -3.27528e+11                  0.00000e+00              5.00000e-01 
  16   -6.40693e+11                  0.00000e+00              5.00000e-01 
  17   -7.45763e+11                  0.00000e+00              5.00000e-01 
  18   -9.17682e+11                  0.00000e+00              5.00000e-01 

                      Zeros (Hz)
                      at V(VOUT,0)/V2

           Real                       Imaginary                 Qfactor

   1   -2.34262e-03                  0.00000e+00              5.00000e-01 
   2   -5.92063e+01                  0.00000e+00              5.00000e-01 
   3   -5.93232e+01                  0.00000e+00              5.00000e-01 
   4   -6.05679e+01                  0.00000e+00              5.00000e-01 
   5   -2.28190e+04                  0.00000e+00              5.00000e-01 
   6   -4.69807e+05                  0.00000e+00              5.00000e-01 
   7   -1.43181e+06                  0.00000e+00              5.00000e-01 
   8   -2.26262e+06                  0.00000e+00              5.00000e-01 
   9   -4.85396e+07                  0.00000e+00              5.00000e-01 
  10    5.32358e+07              +/- 2.13054e+07              -5.38555e-01
  11   -9.37036e+07                  0.00000e+00              5.00000e-01 
  12   -1.47224e+08                  0.00000e+00              5.00000e-01 
  13   -1.91481e+08                  0.00000e+00              5.00000e-01 
  14   -1.15382e+11                  0.00000e+00              5.00000e-01 
  15   -3.26935e+11                  0.00000e+00              5.00000e-01 
  16   -7.61885e+11                  0.00000e+00              5.00000e-01 
  17   -7.66223e+11                  0.00000e+00              5.00000e-01 
  18   -9.17851e+11                  0.00000e+00              5.00000e-01 

Constant factor =  2.82614e-02

DC gain =  9.98368e-01


Warning from spectre at 0 during PZ analysis `pz', during Monte Carlo analysis `mc1'.
    WARNING (UWI-8101): The specified waveform format 'psf' (improper context for requested action) could not be added. The simulator will ignore the waveform. Check the application programming interface (API) before running the simulation again.
    WARNING (UWI-8101): The specified waveform format 'psf' (improper context for requested action) could not be added. The simulator will ignore the waveform. Check the application programming interface (API) before running the simulation again.
    WARNING (UWI-8101): The specified waveform format 'psf' (improper context for requested action) could not be added. The simulator will ignore the waveform. Check the application programming interface (API) before running the simulation again.
    WARNING (UWI-8101): The specified waveform format 'psf' (improper context for requested action) could not be added. The simulator will ignore the waveform. Check the application programming interface (API) before running the simulation again.
    WARNING (UWI-8101): The specified waveform format 'psf' (improper context for requested action) could not be added. The simulator will ignore the waveform. Check the application programming interface (API) before running the simulation again.
        Further occurrences of this warning will be suppressed.

Accumulated DC solution time =            3.83019 ms.
Intrinsic pz analysis time =              18.8408 ms.
Total time required for pz analysis `pz': CPU = 23.251 ms, elapsed = 23.9189 ms, util. = 97.2%.
Time accumulated: CPU = 790.013 ms, elapsed = 3.25011 s.
Peak resident memory used = 221 Mbytes.


Notice from spectre during PZ analysis `pz', during Monte Carlo analysis `mc1'.
    114 warnings suppressed.


************************************************
Transient Analysis `tran': time = (0 s -> 40 ms)
************************************************

Opening the PSF file ../psf/mc1_separate/014/tran.tran.tran ...

Notice from spectre during IC analysis, during transient analysis `tran', during Monte Carlo analysis `mc1'.
    Bad pivoting is found during DC analysis. Option dc_pivot_check=yes is recommended for possible improvement of convergence.
Warning from spectre during check, during IC analysis, during transient analysis `tran', during Monte Carlo analysis `mc1'.
    WARNING (CMI-2943): Parameter checks have been ignored because the valid value for parameter 'trise' could not be found in 'C1'.
    WARNING (CMI-2943): Parameter checks have been ignored because the valid value for parameter 'trise' could not be found in 'I0.C9<2>.C1'.
    WARNING (CMI-2943): Parameter checks have been ignored because the valid value for parameter 'trise' could not be found in 'I0.C9<1>.C1'.
    WARNING (CMI-2943): Parameter checks have been ignored because the valid value for parameter 'trise' could not be found in 'I0.C9<0>.C1'.
    WARNING (CMI-2943): Parameter checks have been ignored because the valid value for parameter 'trise' could not be found in 'I0.C4.C1'.
        Further occurrences of this warning will be suppressed.

Convergence achieved in 19 iterations.
DC simulation time: CPU = 2.525 ms, elapsed = 2.52604 ms.
Important parameter values:
    start = 0 s
    outputstart = 0 s
    stop = 40 ms
    step = 40 us
    maxstep = 400 us
    ic = all
    useprevic = no
    skipdc = no
    reltol = 10e-06
    abstol(V) = 1 uV
    abstol(I) = 1 pA
    temp = 27 C
    tnom = 27 C
    tempeffects = all
    errpreset = conservative
    method = gear2only
    lteratio = 10
    relref = alllocal
    cmin = 0 F
    gmin = 1 pS
    rabsshort = 1 mOhm


Notice from spectre during transient analysis `tran', during Monte Carlo analysis `mc1'.
    Multithreading is disabled due to the size of the design being too small.


Output and IC/nodeset summary:
                 save   7       (current)
                 save   81      (voltage)

    tran: time = 1.016 ms    (2.54 %), step = 119.9 us     (300 m%)
    tran: time = 3.237 ms    (8.09 %), step = 326.8 us     (817 m%)
    tran: time = 5.218 ms      (13 %), step = 400 us          (1 %)
    tran: time = 7.218 ms      (18 %), step = 400 us          (1 %)
    tran: time = 9.218 ms      (23 %), step = 400 us          (1 %)
    tran: time = 11.22 ms      (28 %), step = 400 us          (1 %)
    tran: time = 13.22 ms      (33 %), step = 400 us          (1 %)
    tran: time = 15.22 ms      (38 %), step = 400 us          (1 %)
    tran: time = 17.22 ms      (43 %), step = 400 us          (1 %)
    tran: time = 19.22 ms      (48 %), step = 400 us          (1 %)
    tran: time = 21.22 ms      (53 %), step = 400 us          (1 %)
    tran: time = 23.22 ms      (58 %), step = 400 us          (1 %)
    tran: time = 25.22 ms      (63 %), step = 400 us          (1 %)
    tran: time = 27.22 ms      (68 %), step = 400 us          (1 %)
    tran: time = 29.22 ms      (73 %), step = 400 us          (1 %)
    tran: time = 31.22 ms      (78 %), step = 400 us          (1 %)
    tran: time = 33.22 ms      (83 %), step = 400 us          (1 %)
    tran: time = 35.22 ms      (88 %), step = 400 us          (1 %)
    tran: time = 37.22 ms      (93 %), step = 400 us          (1 %)
    tran: time = 39.22 ms      (98 %), step = 400 us          (1 %)
Number of accepted tran steps =             193

Maximum value achieved for any signal of each quantity: 
V: V(net2) = 3.3 V
I: I(V0:p) = 6.507 uA
Maximum value of each quantity, excluding Verilog-A modules or dangling current sources:
V: V(VOUT2) = 1.762 V
I: I(V0:p) = 6.507 uA

~~~~~~~~~~~~~~~~~~~~~~~~~~~~~~~~~
Post-Transient Simulation Summary
~~~~~~~~~~~~~~~~~~~~~~~~~~~~~~~~~
   -   To further speed up simulation, consider
          add ++aps on command line
   -   Non-default settings that could significantly slow down simulation
          errpreset = conservative, default moderate
          reltol = 10e-06, default 100e-06 (conservative)
~~~~~~~~~~~~~~~~~~~~~~~~~~~~~~~~~


During simulation, the CPU load for active processors is :
         0 (30.0 %)      1 (13.1 %)      2 (13.0 %)      3 (10.5 %)
         4 (21.4 %)      5 (100.0 %)     6 (21.4 %)      7 (12.3 %)
         8 (99.4 %)      9 (100.0 %)    10 (17.8 %)     11 (12.1 %)
        12 (26.6 %)     13 (30.3 %)     14 (31.4 %)     15 (46.0 %)
        16 (30.3 %)     17 (37.2 %)     18 (23.5 %)     19 (48.3 %)
        20 (28.5 %)     21 (28.4 %)     22 (77.5 %)     23 (37.8 %)
        24 (43.9 %)     25 (33.2 %)     26 (40.7 %)     27 (26.2 %)
        28 (100.0 %)    29 (33.2 %)     30 (58.3 %)     31 (56.2 %)
        32 (62.0 %)     33 (39.7 %)     34 (40.5 %)     35 (40.1 %)
        36 (100.0 %)    37 (20.3 %)     38 (30.4 %)     39 (45.3 %)
        40 (19.6 %)     41 (9.8 %)      42 (21.2 %)     43 (19.6 %)
        44 (20.2 %)     45 (40.6 %)     46 (16.2 %)     47 (29.4 %)
        Total: 1844.0%
Initial condition solution time: CPU = 2.561 ms, elapsed = 2.563 ms.
Intrinsic tran analysis time:    CPU = 97.63 ms, elapsed = 98.9199 ms.
Total time required for tran analysis `tran': CPU = 102.629 ms, elapsed = 104.484 ms, util. = 98.2%.
Time accumulated: CPU = 894.814 ms, elapsed = 3.35793 s.
Peak resident memory used = 225 Mbytes.


Notice from spectre during transient analysis `tran', during Monte Carlo analysis `mc1'.
    37 warnings suppressed.

finalTimeOP: writing operating point information to rawfile.

Opening the PSF file ../psf/mc1_separate/014/finalTimeOP.info ...

********************************************
AC Analysis `ac': freq = (10 mHz -> 100 MHz)
********************************************

Opening the PSF file ../psf/mc1_separate/014/ac.ac ...

Notice from spectre at freq = 0 Hz during DC analysis, during AC analysis `ac', during Monte Carlo analysis `mc1'.
    Bad pivoting is found during DC analysis. Option dc_pivot_check=yes is recommended for possible improvement of convergence.
Warning from spectre at freq = 0 Hz during check, during DC analysis, during AC analysis `ac', during Monte Carlo analysis `mc1'.
    WARNING (CMI-2943): Parameter checks have been ignored because the valid value for parameter 'trise' could not be found in 'C1'.
    WARNING (CMI-2943): Parameter checks have been ignored because the valid value for parameter 'trise' could not be found in 'I0.C9<2>.C1'.
    WARNING (CMI-2943): Parameter checks have been ignored because the valid value for parameter 'trise' could not be found in 'I0.C9<1>.C1'.
    WARNING (CMI-2943): Parameter checks have been ignored because the valid value for parameter 'trise' could not be found in 'I0.C9<0>.C1'.
    WARNING (CMI-2943): Parameter checks have been ignored because the valid value for parameter 'trise' could not be found in 'I0.C4.C1'.
        Further occurrences of this warning will be suppressed.

Convergence achieved in 19 iterations.
DC simulation time: CPU = 2.928 ms, elapsed = 2.92802 ms.
    ac: freq = 18.48 mHz   (2.67 %), step = 1.365 mHz    (333 m%)
    ac: freq = 19.95 mHz      (3 %), step = 1.474 mHz    (333 m%)
    ac: freq = 21.54 mHz   (3.33 %), step = 1.592 mHz    (333 m%)
    ac: freq = 23.26 mHz   (3.67 %), step = 1.719 mHz    (333 m%)
    ac: freq = 25.12 mHz      (4 %), step = 1.856 mHz    (333 m%)
    ac: freq = 27.12 mHz   (4.33 %), step = 2.004 mHz    (333 m%)
    ac: freq = 29.29 mHz   (4.67 %), step = 2.164 mHz    (333 m%)
    ac: freq = 31.62 mHz      (5 %), step = 2.336 mHz    (333 m%)
    ac: freq = 34.15 mHz   (5.33 %), step = 2.523 mHz    (333 m%)
    ac: freq = 36.87 mHz   (5.67 %), step = 2.724 mHz    (333 m%)
    ac: freq = 39.81 mHz      (6 %), step = 2.941 mHz    (333 m%)
    ac: freq = 42.99 mHz   (6.33 %), step = 3.176 mHz    (333 m%)
    ac: freq = 46.42 mHz   (6.67 %), step = 3.429 mHz    (333 m%)
    ac: freq = 50.12 mHz      (7 %), step = 3.703 mHz    (333 m%)
    ac: freq = 54.12 mHz   (7.33 %), step = 3.998 mHz    (333 m%)
    ac: freq = 58.43 mHz   (7.67 %), step = 4.317 mHz    (333 m%)
    ac: freq = 63.1 mHz       (8 %), step = 4.662 mHz    (333 m%)
    ac: freq = 68.13 mHz   (8.33 %), step = 5.033 mHz    (333 m%)
    ac: freq = 73.56 mHz   (8.67 %), step = 5.435 mHz    (333 m%)
    ac: freq = 79.43 mHz      (9 %), step = 5.869 mHz    (333 m%)
    ac: freq = 85.77 mHz   (9.33 %), step = 6.337 mHz    (333 m%)
    ac: freq = 92.61 mHz   (9.67 %), step = 6.842 mHz    (333 m%)
    ac: freq = 100 mHz       (10 %), step = 7.388 mHz    (333 m%)
    ac: freq = 108 mHz     (10.3 %), step = 7.978 mHz    (333 m%)
    ac: freq = 116.6 mHz   (10.7 %), step = 8.614 mHz    (333 m%)
    ac: freq = 125.9 mHz     (11 %), step = 9.301 mHz    (333 m%)
    ac: freq = 135.9 mHz   (11.3 %), step = 10.04 mHz    (333 m%)
    ac: freq = 146.8 mHz   (11.7 %), step = 10.84 mHz    (333 m%)
    ac: freq = 158.5 mHz     (12 %), step = 11.71 mHz    (333 m%)
    ac: freq = 171.1 mHz   (12.3 %), step = 12.64 mHz    (333 m%)
    ac: freq = 184.8 mHz   (12.7 %), step = 13.65 mHz    (333 m%)
    ac: freq = 199.5 mHz     (13 %), step = 14.74 mHz    (333 m%)
    ac: freq = 215.4 mHz   (13.3 %), step = 15.92 mHz    (333 m%)
    ac: freq = 232.6 mHz   (13.7 %), step = 17.19 mHz    (333 m%)
    ac: freq = 251.2 mHz     (14 %), step = 18.56 mHz    (333 m%)
    ac: freq = 271.2 mHz   (14.3 %), step = 20.04 mHz    (333 m%)
    ac: freq = 292.9 mHz   (14.7 %), step = 21.64 mHz    (333 m%)
    ac: freq = 316.2 mHz     (15 %), step = 23.36 mHz    (333 m%)
    ac: freq = 341.5 mHz   (15.3 %), step = 25.23 mHz    (333 m%)
    ac: freq = 368.7 mHz   (15.7 %), step = 27.24 mHz    (333 m%)
    ac: freq = 398.1 mHz     (16 %), step = 29.41 mHz    (333 m%)
    ac: freq = 429.9 mHz   (16.3 %), step = 31.76 mHz    (333 m%)
    ac: freq = 464.2 mHz   (16.7 %), step = 34.29 mHz    (333 m%)
    ac: freq = 501.2 mHz     (17 %), step = 37.03 mHz    (333 m%)
    ac: freq = 541.2 mHz   (17.3 %), step = 39.98 mHz    (333 m%)
    ac: freq = 584.3 mHz   (17.7 %), step = 43.17 mHz    (333 m%)
    ac: freq = 631 mHz       (18 %), step = 46.62 mHz    (333 m%)
    ac: freq = 681.3 mHz   (18.3 %), step = 50.33 mHz    (333 m%)
    ac: freq = 735.6 mHz   (18.7 %), step = 54.35 mHz    (333 m%)
    ac: freq = 794.3 mHz     (19 %), step = 58.69 mHz    (333 m%)
    ac: freq = 857.7 mHz   (19.3 %), step = 63.37 mHz    (333 m%)
    ac: freq = 926.1 mHz   (19.7 %), step = 68.42 mHz    (333 m%)
    ac: freq = 1 Hz          (20 %), step = 73.88 mHz    (333 m%)
    ac: freq = 1.08 Hz     (20.3 %), step = 79.78 mHz    (333 m%)
    ac: freq = 1.166 Hz    (20.7 %), step = 86.14 mHz    (333 m%)
    ac: freq = 1.259 Hz      (21 %), step = 93.01 mHz    (333 m%)
    ac: freq = 1.359 Hz    (21.3 %), step = 100.4 mHz    (333 m%)
    ac: freq = 1.468 Hz    (21.7 %), step = 108.4 mHz    (333 m%)
    ac: freq = 1.585 Hz      (22 %), step = 117.1 mHz    (333 m%)
    ac: freq = 1.711 Hz    (22.3 %), step = 126.4 mHz    (333 m%)
    ac: freq = 1.848 Hz    (22.7 %), step = 136.5 mHz    (333 m%)
    ac: freq = 1.995 Hz      (23 %), step = 147.4 mHz    (333 m%)
    ac: freq = 2.154 Hz    (23.3 %), step = 159.2 mHz    (333 m%)
    ac: freq = 2.326 Hz    (23.7 %), step = 171.9 mHz    (333 m%)
    ac: freq = 2.512 Hz      (24 %), step = 185.6 mHz    (333 m%)
    ac: freq = 2.712 Hz    (24.3 %), step = 200.4 mHz    (333 m%)
    ac: freq = 2.929 Hz    (24.7 %), step = 216.4 mHz    (333 m%)
    ac: freq = 3.162 Hz      (25 %), step = 233.6 mHz    (333 m%)
    ac: freq = 3.415 Hz    (25.3 %), step = 252.3 mHz    (333 m%)
    ac: freq = 3.687 Hz    (25.7 %), step = 272.4 mHz    (333 m%)
    ac: freq = 3.981 Hz      (26 %), step = 294.1 mHz    (333 m%)
    ac: freq = 4.299 Hz    (26.3 %), step = 317.6 mHz    (333 m%)
    ac: freq = 4.642 Hz    (26.7 %), step = 342.9 mHz    (333 m%)
    ac: freq = 5.012 Hz      (27 %), step = 370.3 mHz    (333 m%)
    ac: freq = 5.412 Hz    (27.3 %), step = 399.8 mHz    (333 m%)
    ac: freq = 5.843 Hz    (27.7 %), step = 431.7 mHz    (333 m%)
    ac: freq = 6.31 Hz       (28 %), step = 466.2 mHz    (333 m%)
    ac: freq = 6.813 Hz    (28.3 %), step = 503.3 mHz    (333 m%)
    ac: freq = 7.356 Hz    (28.7 %), step = 543.5 mHz    (333 m%)
    ac: freq = 7.943 Hz      (29 %), step = 586.9 mHz    (333 m%)
    ac: freq = 8.577 Hz    (29.3 %), step = 633.7 mHz    (333 m%)
    ac: freq = 9.261 Hz    (29.7 %), step = 684.2 mHz    (333 m%)
    ac: freq = 10 Hz         (30 %), step = 738.8 mHz    (333 m%)
    ac: freq = 10.8 Hz     (30.3 %), step = 797.8 mHz    (333 m%)
    ac: freq = 11.66 Hz    (30.7 %), step = 861.4 mHz    (333 m%)
    ac: freq = 12.59 Hz      (31 %), step = 930.1 mHz    (333 m%)
    ac: freq = 13.59 Hz    (31.3 %), step = 1.004 Hz     (333 m%)
    ac: freq = 14.68 Hz    (31.7 %), step = 1.084 Hz     (333 m%)
    ac: freq = 15.85 Hz      (32 %), step = 1.171 Hz     (333 m%)
    ac: freq = 17.11 Hz    (32.3 %), step = 1.264 Hz     (333 m%)
    ac: freq = 18.48 Hz    (32.7 %), step = 1.365 Hz     (333 m%)
    ac: freq = 19.95 Hz      (33 %), step = 1.474 Hz     (333 m%)
    ac: freq = 21.54 Hz    (33.3 %), step = 1.592 Hz     (333 m%)
    ac: freq = 23.26 Hz    (33.7 %), step = 1.719 Hz     (333 m%)
    ac: freq = 25.12 Hz      (34 %), step = 1.856 Hz     (333 m%)
    ac: freq = 27.12 Hz    (34.3 %), step = 2.004 Hz     (333 m%)
    ac: freq = 29.29 Hz    (34.7 %), step = 2.164 Hz     (333 m%)
    ac: freq = 31.62 Hz      (35 %), step = 2.336 Hz     (333 m%)
    ac: freq = 34.15 Hz    (35.3 %), step = 2.523 Hz     (333 m%)
    ac: freq = 36.87 Hz    (35.7 %), step = 2.724 Hz     (333 m%)
    ac: freq = 39.81 Hz      (36 %), step = 2.941 Hz     (333 m%)
    ac: freq = 42.99 Hz    (36.3 %), step = 3.176 Hz     (333 m%)
    ac: freq = 46.42 Hz    (36.7 %), step = 3.429 Hz     (333 m%)
    ac: freq = 50.12 Hz      (37 %), step = 3.703 Hz     (333 m%)
    ac: freq = 54.12 Hz    (37.3 %), step = 3.998 Hz     (333 m%)
    ac: freq = 58.43 Hz    (37.7 %), step = 4.317 Hz     (333 m%)
    ac: freq = 63.1 Hz       (38 %), step = 4.662 Hz     (333 m%)
    ac: freq = 68.13 Hz    (38.3 %), step = 5.033 Hz     (333 m%)
    ac: freq = 73.56 Hz    (38.7 %), step = 5.435 Hz     (333 m%)
    ac: freq = 79.43 Hz      (39 %), step = 5.869 Hz     (333 m%)
    ac: freq = 85.77 Hz    (39.3 %), step = 6.337 Hz     (333 m%)
    ac: freq = 92.61 Hz    (39.7 %), step = 6.842 Hz     (333 m%)
    ac: freq = 100 Hz        (40 %), step = 7.388 Hz     (333 m%)
    ac: freq = 108 Hz      (40.3 %), step = 7.978 Hz     (333 m%)
    ac: freq = 116.6 Hz    (40.7 %), step = 8.614 Hz     (333 m%)
    ac: freq = 125.9 Hz      (41 %), step = 9.301 Hz     (333 m%)
    ac: freq = 135.9 Hz    (41.3 %), step = 10.04 Hz     (333 m%)
    ac: freq = 146.8 Hz    (41.7 %), step = 10.84 Hz     (333 m%)
    ac: freq = 158.5 Hz      (42 %), step = 11.71 Hz     (333 m%)
    ac: freq = 171.1 Hz    (42.3 %), step = 12.64 Hz     (333 m%)
    ac: freq = 184.8 Hz    (42.7 %), step = 13.65 Hz     (333 m%)
    ac: freq = 199.5 Hz      (43 %), step = 14.74 Hz     (333 m%)
    ac: freq = 215.4 Hz    (43.3 %), step = 15.92 Hz     (333 m%)
    ac: freq = 232.6 Hz    (43.7 %), step = 17.19 Hz     (333 m%)
    ac: freq = 251.2 Hz      (44 %), step = 18.56 Hz     (333 m%)
    ac: freq = 271.2 Hz    (44.3 %), step = 20.04 Hz     (333 m%)
    ac: freq = 292.9 Hz    (44.7 %), step = 21.64 Hz     (333 m%)
    ac: freq = 316.2 Hz      (45 %), step = 23.36 Hz     (333 m%)
    ac: freq = 341.5 Hz    (45.3 %), step = 25.23 Hz     (333 m%)
    ac: freq = 368.7 Hz    (45.7 %), step = 27.24 Hz     (333 m%)
    ac: freq = 398.1 Hz      (46 %), step = 29.41 Hz     (333 m%)
    ac: freq = 429.9 Hz    (46.3 %), step = 31.76 Hz     (333 m%)
    ac: freq = 464.2 Hz    (46.7 %), step = 34.29 Hz     (333 m%)
    ac: freq = 501.2 Hz      (47 %), step = 37.03 Hz     (333 m%)
    ac: freq = 541.2 Hz    (47.3 %), step = 39.98 Hz     (333 m%)
    ac: freq = 584.3 Hz    (47.7 %), step = 43.17 Hz     (333 m%)
    ac: freq = 631 Hz        (48 %), step = 46.62 Hz     (333 m%)
    ac: freq = 681.3 Hz    (48.3 %), step = 50.33 Hz     (333 m%)
    ac: freq = 735.6 Hz    (48.7 %), step = 54.35 Hz     (333 m%)
    ac: freq = 794.3 Hz      (49 %), step = 58.69 Hz     (333 m%)
    ac: freq = 857.7 Hz    (49.3 %), step = 63.37 Hz     (333 m%)
    ac: freq = 926.1 Hz    (49.7 %), step = 68.42 Hz     (333 m%)
    ac: freq = 1 kHz         (50 %), step = 73.88 Hz     (333 m%)
    ac: freq = 1.08 kHz    (50.3 %), step = 79.78 Hz     (333 m%)
    ac: freq = 1.166 kHz   (50.7 %), step = 86.14 Hz     (333 m%)
    ac: freq = 1.259 kHz     (51 %), step = 93.01 Hz     (333 m%)
    ac: freq = 1.359 kHz   (51.3 %), step = 100.4 Hz     (333 m%)
    ac: freq = 1.468 kHz   (51.7 %), step = 108.4 Hz     (333 m%)
    ac: freq = 1.585 kHz     (52 %), step = 117.1 Hz     (333 m%)
    ac: freq = 1.711 kHz   (52.3 %), step = 126.4 Hz     (333 m%)
    ac: freq = 1.848 kHz   (52.7 %), step = 136.5 Hz     (333 m%)
    ac: freq = 1.995 kHz     (53 %), step = 147.4 Hz     (333 m%)
    ac: freq = 2.154 kHz   (53.3 %), step = 159.2 Hz     (333 m%)
    ac: freq = 2.326 kHz   (53.7 %), step = 171.9 Hz     (333 m%)
    ac: freq = 2.512 kHz     (54 %), step = 185.6 Hz     (333 m%)
    ac: freq = 2.712 kHz   (54.3 %), step = 200.4 Hz     (333 m%)
    ac: freq = 2.929 kHz   (54.7 %), step = 216.4 Hz     (333 m%)
    ac: freq = 3.162 kHz     (55 %), step = 233.6 Hz     (333 m%)
    ac: freq = 3.415 kHz   (55.3 %), step = 252.3 Hz     (333 m%)
    ac: freq = 3.687 kHz   (55.7 %), step = 272.4 Hz     (333 m%)
    ac: freq = 3.981 kHz     (56 %), step = 294.1 Hz     (333 m%)
    ac: freq = 4.299 kHz   (56.3 %), step = 317.6 Hz     (333 m%)
    ac: freq = 4.642 kHz   (56.7 %), step = 342.9 Hz     (333 m%)
    ac: freq = 5.012 kHz     (57 %), step = 370.3 Hz     (333 m%)
    ac: freq = 5.412 kHz   (57.3 %), step = 399.8 Hz     (333 m%)
    ac: freq = 5.843 kHz   (57.7 %), step = 431.7 Hz     (333 m%)
    ac: freq = 6.31 kHz      (58 %), step = 466.2 Hz     (333 m%)
    ac: freq = 6.813 kHz   (58.3 %), step = 503.3 Hz     (333 m%)
    ac: freq = 7.356 kHz   (58.7 %), step = 543.5 Hz     (333 m%)
    ac: freq = 7.943 kHz     (59 %), step = 586.9 Hz     (333 m%)
    ac: freq = 8.577 kHz   (59.3 %), step = 633.7 Hz     (333 m%)
    ac: freq = 9.261 kHz   (59.7 %), step = 684.2 Hz     (333 m%)
    ac: freq = 10 kHz        (60 %), step = 738.8 Hz     (333 m%)
    ac: freq = 10.8 kHz    (60.3 %), step = 797.8 Hz     (333 m%)
    ac: freq = 11.66 kHz   (60.7 %), step = 861.4 Hz     (333 m%)
    ac: freq = 12.59 kHz     (61 %), step = 930.1 Hz     (333 m%)
    ac: freq = 13.59 kHz   (61.3 %), step = 1.004 kHz    (333 m%)
    ac: freq = 14.68 kHz   (61.7 %), step = 1.084 kHz    (333 m%)
    ac: freq = 15.85 kHz     (62 %), step = 1.171 kHz    (333 m%)
    ac: freq = 17.11 kHz   (62.3 %), step = 1.264 kHz    (333 m%)
    ac: freq = 18.48 kHz   (62.7 %), step = 1.365 kHz    (333 m%)
    ac: freq = 19.95 kHz     (63 %), step = 1.474 kHz    (333 m%)
    ac: freq = 21.54 kHz   (63.3 %), step = 1.592 kHz    (333 m%)
    ac: freq = 23.26 kHz   (63.7 %), step = 1.719 kHz    (333 m%)
    ac: freq = 25.12 kHz     (64 %), step = 1.856 kHz    (333 m%)
    ac: freq = 27.12 kHz   (64.3 %), step = 2.004 kHz    (333 m%)
    ac: freq = 29.29 kHz   (64.7 %), step = 2.164 kHz    (333 m%)
    ac: freq = 31.62 kHz     (65 %), step = 2.336 kHz    (333 m%)
    ac: freq = 34.15 kHz   (65.3 %), step = 2.523 kHz    (333 m%)
    ac: freq = 36.87 kHz   (65.7 %), step = 2.724 kHz    (333 m%)
    ac: freq = 39.81 kHz     (66 %), step = 2.941 kHz    (333 m%)
    ac: freq = 42.99 kHz   (66.3 %), step = 3.176 kHz    (333 m%)
    ac: freq = 46.42 kHz   (66.7 %), step = 3.429 kHz    (333 m%)
    ac: freq = 50.12 kHz     (67 %), step = 3.703 kHz    (333 m%)
    ac: freq = 54.12 kHz   (67.3 %), step = 3.998 kHz    (333 m%)
    ac: freq = 58.43 kHz   (67.7 %), step = 4.317 kHz    (333 m%)
    ac: freq = 63.1 kHz      (68 %), step = 4.662 kHz    (333 m%)
    ac: freq = 68.13 kHz   (68.3 %), step = 5.033 kHz    (333 m%)
    ac: freq = 73.56 kHz   (68.7 %), step = 5.435 kHz    (333 m%)
    ac: freq = 79.43 kHz     (69 %), step = 5.869 kHz    (333 m%)
    ac: freq = 85.77 kHz   (69.3 %), step = 6.337 kHz    (333 m%)
    ac: freq = 92.61 kHz   (69.7 %), step = 6.842 kHz    (333 m%)
    ac: freq = 100 kHz       (70 %), step = 7.388 kHz    (333 m%)
    ac: freq = 108 kHz     (70.3 %), step = 7.978 kHz    (333 m%)
    ac: freq = 116.6 kHz   (70.7 %), step = 8.614 kHz    (333 m%)
    ac: freq = 125.9 kHz     (71 %), step = 9.301 kHz    (333 m%)
    ac: freq = 135.9 kHz   (71.3 %), step = 10.04 kHz    (333 m%)
    ac: freq = 146.8 kHz   (71.7 %), step = 10.84 kHz    (333 m%)
    ac: freq = 158.5 kHz     (72 %), step = 11.71 kHz    (333 m%)
    ac: freq = 171.1 kHz   (72.3 %), step = 12.64 kHz    (333 m%)
    ac: freq = 184.8 kHz   (72.7 %), step = 13.65 kHz    (333 m%)
    ac: freq = 199.5 kHz     (73 %), step = 14.74 kHz    (333 m%)
    ac: freq = 215.4 kHz   (73.3 %), step = 15.92 kHz    (333 m%)
    ac: freq = 232.6 kHz   (73.7 %), step = 17.19 kHz    (333 m%)
    ac: freq = 251.2 kHz     (74 %), step = 18.56 kHz    (333 m%)
    ac: freq = 271.2 kHz   (74.3 %), step = 20.04 kHz    (333 m%)
    ac: freq = 292.9 kHz   (74.7 %), step = 21.64 kHz    (333 m%)
    ac: freq = 316.2 kHz     (75 %), step = 23.36 kHz    (333 m%)
    ac: freq = 341.5 kHz   (75.3 %), step = 25.23 kHz    (333 m%)
    ac: freq = 368.7 kHz   (75.7 %), step = 27.24 kHz    (333 m%)
    ac: freq = 398.1 kHz     (76 %), step = 29.41 kHz    (333 m%)
    ac: freq = 429.9 kHz   (76.3 %), step = 31.76 kHz    (333 m%)
    ac: freq = 464.2 kHz   (76.7 %), step = 34.29 kHz    (333 m%)
    ac: freq = 501.2 kHz     (77 %), step = 37.03 kHz    (333 m%)
    ac: freq = 541.2 kHz   (77.3 %), step = 39.98 kHz    (333 m%)
    ac: freq = 584.3 kHz   (77.7 %), step = 43.17 kHz    (333 m%)
    ac: freq = 631 kHz       (78 %), step = 46.62 kHz    (333 m%)
    ac: freq = 681.3 kHz   (78.3 %), step = 50.33 kHz    (333 m%)
    ac: freq = 735.6 kHz   (78.7 %), step = 54.35 kHz    (333 m%)
    ac: freq = 794.3 kHz     (79 %), step = 58.69 kHz    (333 m%)
    ac: freq = 857.7 kHz   (79.3 %), step = 63.37 kHz    (333 m%)
    ac: freq = 926.1 kHz   (79.7 %), step = 68.42 kHz    (333 m%)
    ac: freq = 1 MHz         (80 %), step = 73.88 kHz    (333 m%)
    ac: freq = 1.08 MHz    (80.3 %), step = 79.78 kHz    (333 m%)
    ac: freq = 1.166 MHz   (80.7 %), step = 86.14 kHz    (333 m%)
    ac: freq = 1.259 MHz     (81 %), step = 93.01 kHz    (333 m%)
    ac: freq = 1.359 MHz   (81.3 %), step = 100.4 kHz    (333 m%)
    ac: freq = 1.468 MHz   (81.7 %), step = 108.4 kHz    (333 m%)
    ac: freq = 1.585 MHz     (82 %), step = 117.1 kHz    (333 m%)
    ac: freq = 1.711 MHz   (82.3 %), step = 126.4 kHz    (333 m%)
    ac: freq = 1.848 MHz   (82.7 %), step = 136.5 kHz    (333 m%)
    ac: freq = 1.995 MHz     (83 %), step = 147.4 kHz    (333 m%)
    ac: freq = 2.154 MHz   (83.3 %), step = 159.2 kHz    (333 m%)
    ac: freq = 2.326 MHz   (83.7 %), step = 171.9 kHz    (333 m%)
    ac: freq = 2.512 MHz     (84 %), step = 185.6 kHz    (333 m%)
    ac: freq = 2.712 MHz   (84.3 %), step = 200.4 kHz    (333 m%)
    ac: freq = 2.929 MHz   (84.7 %), step = 216.4 kHz    (333 m%)
    ac: freq = 3.162 MHz     (85 %), step = 233.6 kHz    (333 m%)
    ac: freq = 3.415 MHz   (85.3 %), step = 252.3 kHz    (333 m%)
    ac: freq = 3.687 MHz   (85.7 %), step = 272.4 kHz    (333 m%)
    ac: freq = 3.981 MHz     (86 %), step = 294.1 kHz    (333 m%)
    ac: freq = 4.299 MHz   (86.3 %), step = 317.6 kHz    (333 m%)
    ac: freq = 4.642 MHz   (86.7 %), step = 342.9 kHz    (333 m%)
    ac: freq = 5.012 MHz     (87 %), step = 370.3 kHz    (333 m%)
    ac: freq = 5.412 MHz   (87.3 %), step = 399.8 kHz    (333 m%)
    ac: freq = 5.843 MHz   (87.7 %), step = 431.7 kHz    (333 m%)
    ac: freq = 6.31 MHz      (88 %), step = 466.2 kHz    (333 m%)
    ac: freq = 6.813 MHz   (88.3 %), step = 503.3 kHz    (333 m%)
    ac: freq = 7.356 MHz   (88.7 %), step = 543.5 kHz    (333 m%)
    ac: freq = 7.943 MHz     (89 %), step = 586.9 kHz    (333 m%)
    ac: freq = 8.577 MHz   (89.3 %), step = 633.7 kHz    (333 m%)
    ac: freq = 9.261 MHz   (89.7 %), step = 684.2 kHz    (333 m%)
    ac: freq = 10 MHz        (90 %), step = 738.8 kHz    (333 m%)
    ac: freq = 10.8 MHz    (90.3 %), step = 797.8 kHz    (333 m%)
    ac: freq = 11.66 MHz   (90.7 %), step = 861.4 kHz    (333 m%)
    ac: freq = 12.59 MHz     (91 %), step = 930.1 kHz    (333 m%)
    ac: freq = 13.59 MHz   (91.3 %), step = 1.004 MHz    (333 m%)
    ac: freq = 14.68 MHz   (91.7 %), step = 1.084 MHz    (333 m%)
    ac: freq = 15.85 MHz     (92 %), step = 1.171 MHz    (333 m%)
    ac: freq = 17.11 MHz   (92.3 %), step = 1.264 MHz    (333 m%)
    ac: freq = 18.48 MHz   (92.7 %), step = 1.365 MHz    (333 m%)
    ac: freq = 19.95 MHz     (93 %), step = 1.474 MHz    (333 m%)
    ac: freq = 21.54 MHz   (93.3 %), step = 1.592 MHz    (333 m%)
    ac: freq = 23.26 MHz   (93.7 %), step = 1.719 MHz    (333 m%)
    ac: freq = 25.12 MHz     (94 %), step = 1.856 MHz    (333 m%)
    ac: freq = 27.12 MHz   (94.3 %), step = 2.004 MHz    (333 m%)
    ac: freq = 29.29 MHz   (94.7 %), step = 2.164 MHz    (333 m%)
    ac: freq = 31.62 MHz     (95 %), step = 2.336 MHz    (333 m%)
    ac: freq = 34.15 MHz   (95.3 %), step = 2.523 MHz    (333 m%)
    ac: freq = 36.87 MHz   (95.7 %), step = 2.724 MHz    (333 m%)
    ac: freq = 39.81 MHz     (96 %), step = 2.941 MHz    (333 m%)
    ac: freq = 42.99 MHz   (96.3 %), step = 3.176 MHz    (333 m%)
    ac: freq = 46.42 MHz   (96.7 %), step = 3.429 MHz    (333 m%)
    ac: freq = 50.12 MHz     (97 %), step = 3.703 MHz    (333 m%)
    ac: freq = 54.12 MHz   (97.3 %), step = 3.998 MHz    (333 m%)
    ac: freq = 58.43 MHz   (97.7 %), step = 4.317 MHz    (333 m%)
    ac: freq = 63.1 MHz      (98 %), step = 4.662 MHz    (333 m%)
    ac: freq = 68.13 MHz   (98.3 %), step = 5.033 MHz    (333 m%)
    ac: freq = 73.56 MHz   (98.7 %), step = 5.435 MHz    (333 m%)
    ac: freq = 79.43 MHz     (99 %), step = 5.869 MHz    (333 m%)
    ac: freq = 85.77 MHz   (99.3 %), step = 6.337 MHz    (333 m%)
    ac: freq = 92.61 MHz   (99.7 %), step = 6.842 MHz    (333 m%)
    ac: freq = 100 MHz      (100 %), step = 7.388 MHz    (333 m%)
Accumulated DC solution time =            0 s.
Intrinsic ac analysis time =              66.0601 ms.
Total time required for ac analysis `ac': CPU = 65.982 ms, elapsed = 67.322 ms, util. = 98%.
Time accumulated: CPU = 965.914 ms, elapsed = 3.43247 s.
Peak resident memory used = 225 Mbytes.


Notice from spectre during AC analysis `ac', during Monte Carlo analysis `mc1'.
    37 warnings suppressed.


**************************************************
Noise Analysis `noise': freq = (10 mHz -> 100 MHz)
**************************************************

Notice from spectre during Noise analysis `noise', during Monte Carlo analysis `mc1'.
    Operating points will not be recomputed: the circuit and conditions were not changed since previous analysis.


Opening the PSF file ../psf/mc1_separate/014/noise.noise ...
    noise: freq = 18.48 mHz   (2.67 %), step = 1.365 mHz    (333 m%)
    noise: freq = 19.95 mHz      (3 %), step = 1.474 mHz    (333 m%)
    noise: freq = 21.54 mHz   (3.33 %), step = 1.592 mHz    (333 m%)
    noise: freq = 23.26 mHz   (3.67 %), step = 1.719 mHz    (333 m%)
    noise: freq = 25.12 mHz      (4 %), step = 1.856 mHz    (333 m%)
    noise: freq = 27.12 mHz   (4.33 %), step = 2.004 mHz    (333 m%)
    noise: freq = 29.29 mHz   (4.67 %), step = 2.164 mHz    (333 m%)
    noise: freq = 31.62 mHz      (5 %), step = 2.336 mHz    (333 m%)
    noise: freq = 34.15 mHz   (5.33 %), step = 2.523 mHz    (333 m%)
    noise: freq = 36.87 mHz   (5.67 %), step = 2.724 mHz    (333 m%)
    noise: freq = 39.81 mHz      (6 %), step = 2.941 mHz    (333 m%)
    noise: freq = 42.99 mHz   (6.33 %), step = 3.176 mHz    (333 m%)
    noise: freq = 46.42 mHz   (6.67 %), step = 3.429 mHz    (333 m%)
    noise: freq = 50.12 mHz      (7 %), step = 3.703 mHz    (333 m%)
    noise: freq = 54.12 mHz   (7.33 %), step = 3.998 mHz    (333 m%)
    noise: freq = 58.43 mHz   (7.67 %), step = 4.317 mHz    (333 m%)
    noise: freq = 63.1 mHz       (8 %), step = 4.662 mHz    (333 m%)
    noise: freq = 68.13 mHz   (8.33 %), step = 5.033 mHz    (333 m%)
    noise: freq = 73.56 mHz   (8.67 %), step = 5.435 mHz    (333 m%)
    noise: freq = 79.43 mHz      (9 %), step = 5.869 mHz    (333 m%)
    noise: freq = 85.77 mHz   (9.33 %), step = 6.337 mHz    (333 m%)
    noise: freq = 92.61 mHz   (9.67 %), step = 6.842 mHz    (333 m%)
    noise: freq = 100 mHz       (10 %), step = 7.388 mHz    (333 m%)
    noise: freq = 108 mHz     (10.3 %), step = 7.978 mHz    (333 m%)
    noise: freq = 116.6 mHz   (10.7 %), step = 8.614 mHz    (333 m%)
    noise: freq = 125.9 mHz     (11 %), step = 9.301 mHz    (333 m%)
    noise: freq = 135.9 mHz   (11.3 %), step = 10.04 mHz    (333 m%)
    noise: freq = 146.8 mHz   (11.7 %), step = 10.84 mHz    (333 m%)
    noise: freq = 158.5 mHz     (12 %), step = 11.71 mHz    (333 m%)
    noise: freq = 171.1 mHz   (12.3 %), step = 12.64 mHz    (333 m%)
    noise: freq = 184.8 mHz   (12.7 %), step = 13.65 mHz    (333 m%)
    noise: freq = 199.5 mHz     (13 %), step = 14.74 mHz    (333 m%)
    noise: freq = 215.4 mHz   (13.3 %), step = 15.92 mHz    (333 m%)
    noise: freq = 232.6 mHz   (13.7 %), step = 17.19 mHz    (333 m%)
    noise: freq = 251.2 mHz     (14 %), step = 18.56 mHz    (333 m%)
    noise: freq = 271.2 mHz   (14.3 %), step = 20.04 mHz    (333 m%)
    noise: freq = 292.9 mHz   (14.7 %), step = 21.64 mHz    (333 m%)
    noise: freq = 316.2 mHz     (15 %), step = 23.36 mHz    (333 m%)
    noise: freq = 341.5 mHz   (15.3 %), step = 25.23 mHz    (333 m%)
    noise: freq = 368.7 mHz   (15.7 %), step = 27.24 mHz    (333 m%)
    noise: freq = 398.1 mHz     (16 %), step = 29.41 mHz    (333 m%)
    noise: freq = 429.9 mHz   (16.3 %), step = 31.76 mHz    (333 m%)
    noise: freq = 464.2 mHz   (16.7 %), step = 34.29 mHz    (333 m%)
    noise: freq = 501.2 mHz     (17 %), step = 37.03 mHz    (333 m%)
    noise: freq = 541.2 mHz   (17.3 %), step = 39.98 mHz    (333 m%)
    noise: freq = 584.3 mHz   (17.7 %), step = 43.17 mHz    (333 m%)
    noise: freq = 631 mHz       (18 %), step = 46.62 mHz    (333 m%)
    noise: freq = 681.3 mHz   (18.3 %), step = 50.33 mHz    (333 m%)
    noise: freq = 735.6 mHz   (18.7 %), step = 54.35 mHz    (333 m%)
    noise: freq = 794.3 mHz     (19 %), step = 58.69 mHz    (333 m%)
    noise: freq = 857.7 mHz   (19.3 %), step = 63.37 mHz    (333 m%)
    noise: freq = 926.1 mHz   (19.7 %), step = 68.42 mHz    (333 m%)
    noise: freq = 1 Hz          (20 %), step = 73.88 mHz    (333 m%)
    noise: freq = 1.08 Hz     (20.3 %), step = 79.78 mHz    (333 m%)
    noise: freq = 1.166 Hz    (20.7 %), step = 86.14 mHz    (333 m%)
    noise: freq = 1.259 Hz      (21 %), step = 93.01 mHz    (333 m%)
    noise: freq = 1.359 Hz    (21.3 %), step = 100.4 mHz    (333 m%)
    noise: freq = 1.468 Hz    (21.7 %), step = 108.4 mHz    (333 m%)
    noise: freq = 1.585 Hz      (22 %), step = 117.1 mHz    (333 m%)
    noise: freq = 1.711 Hz    (22.3 %), step = 126.4 mHz    (333 m%)
    noise: freq = 1.848 Hz    (22.7 %), step = 136.5 mHz    (333 m%)
    noise: freq = 1.995 Hz      (23 %), step = 147.4 mHz    (333 m%)
    noise: freq = 2.154 Hz    (23.3 %), step = 159.2 mHz    (333 m%)
    noise: freq = 2.326 Hz    (23.7 %), step = 171.9 mHz    (333 m%)
    noise: freq = 2.512 Hz      (24 %), step = 185.6 mHz    (333 m%)
    noise: freq = 2.712 Hz    (24.3 %), step = 200.4 mHz    (333 m%)
    noise: freq = 2.929 Hz    (24.7 %), step = 216.4 mHz    (333 m%)
    noise: freq = 3.162 Hz      (25 %), step = 233.6 mHz    (333 m%)
    noise: freq = 3.415 Hz    (25.3 %), step = 252.3 mHz    (333 m%)
    noise: freq = 3.687 Hz    (25.7 %), step = 272.4 mHz    (333 m%)
    noise: freq = 3.981 Hz      (26 %), step = 294.1 mHz    (333 m%)
    noise: freq = 4.299 Hz    (26.3 %), step = 317.6 mHz    (333 m%)
    noise: freq = 4.642 Hz    (26.7 %), step = 342.9 mHz    (333 m%)
    noise: freq = 5.012 Hz      (27 %), step = 370.3 mHz    (333 m%)
    noise: freq = 5.412 Hz    (27.3 %), step = 399.8 mHz    (333 m%)
    noise: freq = 5.843 Hz    (27.7 %), step = 431.7 mHz    (333 m%)
    noise: freq = 6.31 Hz       (28 %), step = 466.2 mHz    (333 m%)
    noise: freq = 6.813 Hz    (28.3 %), step = 503.3 mHz    (333 m%)
    noise: freq = 7.356 Hz    (28.7 %), step = 543.5 mHz    (333 m%)
    noise: freq = 7.943 Hz      (29 %), step = 586.9 mHz    (333 m%)
    noise: freq = 8.577 Hz    (29.3 %), step = 633.7 mHz    (333 m%)
    noise: freq = 9.261 Hz    (29.7 %), step = 684.2 mHz    (333 m%)
    noise: freq = 10 Hz         (30 %), step = 738.8 mHz    (333 m%)
    noise: freq = 10.8 Hz     (30.3 %), step = 797.8 mHz    (333 m%)
    noise: freq = 11.66 Hz    (30.7 %), step = 861.4 mHz    (333 m%)
    noise: freq = 12.59 Hz      (31 %), step = 930.1 mHz    (333 m%)
    noise: freq = 13.59 Hz    (31.3 %), step = 1.004 Hz     (333 m%)
    noise: freq = 14.68 Hz    (31.7 %), step = 1.084 Hz     (333 m%)
    noise: freq = 15.85 Hz      (32 %), step = 1.171 Hz     (333 m%)
    noise: freq = 17.11 Hz    (32.3 %), step = 1.264 Hz     (333 m%)
    noise: freq = 18.48 Hz    (32.7 %), step = 1.365 Hz     (333 m%)
    noise: freq = 19.95 Hz      (33 %), step = 1.474 Hz     (333 m%)
    noise: freq = 21.54 Hz    (33.3 %), step = 1.592 Hz     (333 m%)
    noise: freq = 23.26 Hz    (33.7 %), step = 1.719 Hz     (333 m%)
    noise: freq = 25.12 Hz      (34 %), step = 1.856 Hz     (333 m%)
    noise: freq = 27.12 Hz    (34.3 %), step = 2.004 Hz     (333 m%)
    noise: freq = 29.29 Hz    (34.7 %), step = 2.164 Hz     (333 m%)
    noise: freq = 31.62 Hz      (35 %), step = 2.336 Hz     (333 m%)
    noise: freq = 34.15 Hz    (35.3 %), step = 2.523 Hz     (333 m%)
    noise: freq = 36.87 Hz    (35.7 %), step = 2.724 Hz     (333 m%)
    noise: freq = 39.81 Hz      (36 %), step = 2.941 Hz     (333 m%)
    noise: freq = 42.99 Hz    (36.3 %), step = 3.176 Hz     (333 m%)
    noise: freq = 46.42 Hz    (36.7 %), step = 3.429 Hz     (333 m%)
    noise: freq = 50.12 Hz      (37 %), step = 3.703 Hz     (333 m%)
    noise: freq = 54.12 Hz    (37.3 %), step = 3.998 Hz     (333 m%)
    noise: freq = 58.43 Hz    (37.7 %), step = 4.317 Hz     (333 m%)
    noise: freq = 63.1 Hz       (38 %), step = 4.662 Hz     (333 m%)
    noise: freq = 68.13 Hz    (38.3 %), step = 5.033 Hz     (333 m%)
    noise: freq = 73.56 Hz    (38.7 %), step = 5.435 Hz     (333 m%)
    noise: freq = 79.43 Hz      (39 %), step = 5.869 Hz     (333 m%)
    noise: freq = 85.77 Hz    (39.3 %), step = 6.337 Hz     (333 m%)
    noise: freq = 92.61 Hz    (39.7 %), step = 6.842 Hz     (333 m%)
    noise: freq = 100 Hz        (40 %), step = 7.388 Hz     (333 m%)
    noise: freq = 108 Hz      (40.3 %), step = 7.978 Hz     (333 m%)
    noise: freq = 116.6 Hz    (40.7 %), step = 8.614 Hz     (333 m%)
    noise: freq = 125.9 Hz      (41 %), step = 9.301 Hz     (333 m%)
    noise: freq = 135.9 Hz    (41.3 %), step = 10.04 Hz     (333 m%)
    noise: freq = 146.8 Hz    (41.7 %), step = 10.84 Hz     (333 m%)
    noise: freq = 158.5 Hz      (42 %), step = 11.71 Hz     (333 m%)
    noise: freq = 171.1 Hz    (42.3 %), step = 12.64 Hz     (333 m%)
    noise: freq = 184.8 Hz    (42.7 %), step = 13.65 Hz     (333 m%)
    noise: freq = 199.5 Hz      (43 %), step = 14.74 Hz     (333 m%)
    noise: freq = 215.4 Hz    (43.3 %), step = 15.92 Hz     (333 m%)
    noise: freq = 232.6 Hz    (43.7 %), step = 17.19 Hz     (333 m%)
    noise: freq = 251.2 Hz      (44 %), step = 18.56 Hz     (333 m%)
    noise: freq = 271.2 Hz    (44.3 %), step = 20.04 Hz     (333 m%)
    noise: freq = 292.9 Hz    (44.7 %), step = 21.64 Hz     (333 m%)
    noise: freq = 316.2 Hz      (45 %), step = 23.36 Hz     (333 m%)
    noise: freq = 341.5 Hz    (45.3 %), step = 25.23 Hz     (333 m%)
    noise: freq = 368.7 Hz    (45.7 %), step = 27.24 Hz     (333 m%)
    noise: freq = 398.1 Hz      (46 %), step = 29.41 Hz     (333 m%)
    noise: freq = 429.9 Hz    (46.3 %), step = 31.76 Hz     (333 m%)
    noise: freq = 464.2 Hz    (46.7 %), step = 34.29 Hz     (333 m%)
    noise: freq = 501.2 Hz      (47 %), step = 37.03 Hz     (333 m%)
    noise: freq = 541.2 Hz    (47.3 %), step = 39.98 Hz     (333 m%)
    noise: freq = 584.3 Hz    (47.7 %), step = 43.17 Hz     (333 m%)
    noise: freq = 631 Hz        (48 %), step = 46.62 Hz     (333 m%)
    noise: freq = 681.3 Hz    (48.3 %), step = 50.33 Hz     (333 m%)
    noise: freq = 735.6 Hz    (48.7 %), step = 54.35 Hz     (333 m%)
    noise: freq = 794.3 Hz      (49 %), step = 58.69 Hz     (333 m%)
    noise: freq = 857.7 Hz    (49.3 %), step = 63.37 Hz     (333 m%)
    noise: freq = 926.1 Hz    (49.7 %), step = 68.42 Hz     (333 m%)
    noise: freq = 1 kHz         (50 %), step = 73.88 Hz     (333 m%)
    noise: freq = 1.08 kHz    (50.3 %), step = 79.78 Hz     (333 m%)
    noise: freq = 1.166 kHz   (50.7 %), step = 86.14 Hz     (333 m%)
    noise: freq = 1.259 kHz     (51 %), step = 93.01 Hz     (333 m%)
    noise: freq = 1.359 kHz   (51.3 %), step = 100.4 Hz     (333 m%)
    noise: freq = 1.468 kHz   (51.7 %), step = 108.4 Hz     (333 m%)
    noise: freq = 1.585 kHz     (52 %), step = 117.1 Hz     (333 m%)
    noise: freq = 1.711 kHz   (52.3 %), step = 126.4 Hz     (333 m%)
    noise: freq = 1.848 kHz   (52.7 %), step = 136.5 Hz     (333 m%)
    noise: freq = 1.995 kHz     (53 %), step = 147.4 Hz     (333 m%)
    noise: freq = 2.154 kHz   (53.3 %), step = 159.2 Hz     (333 m%)
    noise: freq = 2.326 kHz   (53.7 %), step = 171.9 Hz     (333 m%)
    noise: freq = 2.512 kHz     (54 %), step = 185.6 Hz     (333 m%)
    noise: freq = 2.712 kHz   (54.3 %), step = 200.4 Hz     (333 m%)
    noise: freq = 2.929 kHz   (54.7 %), step = 216.4 Hz     (333 m%)
    noise: freq = 3.162 kHz     (55 %), step = 233.6 Hz     (333 m%)
    noise: freq = 3.415 kHz   (55.3 %), step = 252.3 Hz     (333 m%)
    noise: freq = 3.687 kHz   (55.7 %), step = 272.4 Hz     (333 m%)
    noise: freq = 3.981 kHz     (56 %), step = 294.1 Hz     (333 m%)
    noise: freq = 4.299 kHz   (56.3 %), step = 317.6 Hz     (333 m%)
    noise: freq = 4.642 kHz   (56.7 %), step = 342.9 Hz     (333 m%)
    noise: freq = 5.012 kHz     (57 %), step = 370.3 Hz     (333 m%)
    noise: freq = 5.412 kHz   (57.3 %), step = 399.8 Hz     (333 m%)
    noise: freq = 5.843 kHz   (57.7 %), step = 431.7 Hz     (333 m%)
    noise: freq = 6.31 kHz      (58 %), step = 466.2 Hz     (333 m%)
    noise: freq = 6.813 kHz   (58.3 %), step = 503.3 Hz     (333 m%)
    noise: freq = 7.356 kHz   (58.7 %), step = 543.5 Hz     (333 m%)
    noise: freq = 7.943 kHz     (59 %), step = 586.9 Hz     (333 m%)
    noise: freq = 8.577 kHz   (59.3 %), step = 633.7 Hz     (333 m%)
    noise: freq = 9.261 kHz   (59.7 %), step = 684.2 Hz     (333 m%)
    noise: freq = 10 kHz        (60 %), step = 738.8 Hz     (333 m%)
    noise: freq = 10.8 kHz    (60.3 %), step = 797.8 Hz     (333 m%)
    noise: freq = 11.66 kHz   (60.7 %), step = 861.4 Hz     (333 m%)
    noise: freq = 12.59 kHz     (61 %), step = 930.1 Hz     (333 m%)
    noise: freq = 13.59 kHz   (61.3 %), step = 1.004 kHz    (333 m%)
    noise: freq = 14.68 kHz   (61.7 %), step = 1.084 kHz    (333 m%)
    noise: freq = 15.85 kHz     (62 %), step = 1.171 kHz    (333 m%)
    noise: freq = 17.11 kHz   (62.3 %), step = 1.264 kHz    (333 m%)
    noise: freq = 18.48 kHz   (62.7 %), step = 1.365 kHz    (333 m%)
    noise: freq = 19.95 kHz     (63 %), step = 1.474 kHz    (333 m%)
    noise: freq = 21.54 kHz   (63.3 %), step = 1.592 kHz    (333 m%)
    noise: freq = 23.26 kHz   (63.7 %), step = 1.719 kHz    (333 m%)
    noise: freq = 25.12 kHz     (64 %), step = 1.856 kHz    (333 m%)
    noise: freq = 27.12 kHz   (64.3 %), step = 2.004 kHz    (333 m%)
    noise: freq = 29.29 kHz   (64.7 %), step = 2.164 kHz    (333 m%)
    noise: freq = 31.62 kHz     (65 %), step = 2.336 kHz    (333 m%)
    noise: freq = 34.15 kHz   (65.3 %), step = 2.523 kHz    (333 m%)
    noise: freq = 36.87 kHz   (65.7 %), step = 2.724 kHz    (333 m%)
    noise: freq = 39.81 kHz     (66 %), step = 2.941 kHz    (333 m%)
    noise: freq = 42.99 kHz   (66.3 %), step = 3.176 kHz    (333 m%)
    noise: freq = 46.42 kHz   (66.7 %), step = 3.429 kHz    (333 m%)
    noise: freq = 50.12 kHz     (67 %), step = 3.703 kHz    (333 m%)
    noise: freq = 54.12 kHz   (67.3 %), step = 3.998 kHz    (333 m%)
    noise: freq = 58.43 kHz   (67.7 %), step = 4.317 kHz    (333 m%)
    noise: freq = 63.1 kHz      (68 %), step = 4.662 kHz    (333 m%)
    noise: freq = 68.13 kHz   (68.3 %), step = 5.033 kHz    (333 m%)
    noise: freq = 73.56 kHz   (68.7 %), step = 5.435 kHz    (333 m%)
    noise: freq = 79.43 kHz     (69 %), step = 5.869 kHz    (333 m%)
    noise: freq = 85.77 kHz   (69.3 %), step = 6.337 kHz    (333 m%)
    noise: freq = 92.61 kHz   (69.7 %), step = 6.842 kHz    (333 m%)
    noise: freq = 100 kHz       (70 %), step = 7.388 kHz    (333 m%)
    noise: freq = 108 kHz     (70.3 %), step = 7.978 kHz    (333 m%)
    noise: freq = 116.6 kHz   (70.7 %), step = 8.614 kHz    (333 m%)
    noise: freq = 125.9 kHz     (71 %), step = 9.301 kHz    (333 m%)
    noise: freq = 135.9 kHz   (71.3 %), step = 10.04 kHz    (333 m%)
    noise: freq = 146.8 kHz   (71.7 %), step = 10.84 kHz    (333 m%)
    noise: freq = 158.5 kHz     (72 %), step = 11.71 kHz    (333 m%)
    noise: freq = 171.1 kHz   (72.3 %), step = 12.64 kHz    (333 m%)
    noise: freq = 184.8 kHz   (72.7 %), step = 13.65 kHz    (333 m%)
    noise: freq = 199.5 kHz     (73 %), step = 14.74 kHz    (333 m%)
    noise: freq = 215.4 kHz   (73.3 %), step = 15.92 kHz    (333 m%)
    noise: freq = 232.6 kHz   (73.7 %), step = 17.19 kHz    (333 m%)
    noise: freq = 251.2 kHz     (74 %), step = 18.56 kHz    (333 m%)
    noise: freq = 271.2 kHz   (74.3 %), step = 20.04 kHz    (333 m%)
    noise: freq = 292.9 kHz   (74.7 %), step = 21.64 kHz    (333 m%)
    noise: freq = 316.2 kHz     (75 %), step = 23.36 kHz    (333 m%)
    noise: freq = 341.5 kHz   (75.3 %), step = 25.23 kHz    (333 m%)
    noise: freq = 368.7 kHz   (75.7 %), step = 27.24 kHz    (333 m%)
    noise: freq = 398.1 kHz     (76 %), step = 29.41 kHz    (333 m%)
    noise: freq = 429.9 kHz   (76.3 %), step = 31.76 kHz    (333 m%)
    noise: freq = 464.2 kHz   (76.7 %), step = 34.29 kHz    (333 m%)
    noise: freq = 501.2 kHz     (77 %), step = 37.03 kHz    (333 m%)
    noise: freq = 541.2 kHz   (77.3 %), step = 39.98 kHz    (333 m%)
    noise: freq = 584.3 kHz   (77.7 %), step = 43.17 kHz    (333 m%)
    noise: freq = 631 kHz       (78 %), step = 46.62 kHz    (333 m%)
    noise: freq = 681.3 kHz   (78.3 %), step = 50.33 kHz    (333 m%)
    noise: freq = 735.6 kHz   (78.7 %), step = 54.35 kHz    (333 m%)
    noise: freq = 794.3 kHz     (79 %), step = 58.69 kHz    (333 m%)
    noise: freq = 857.7 kHz   (79.3 %), step = 63.37 kHz    (333 m%)
    noise: freq = 926.1 kHz   (79.7 %), step = 68.42 kHz    (333 m%)
    noise: freq = 1 MHz         (80 %), step = 73.88 kHz    (333 m%)
    noise: freq = 1.08 MHz    (80.3 %), step = 79.78 kHz    (333 m%)
    noise: freq = 1.166 MHz   (80.7 %), step = 86.14 kHz    (333 m%)
    noise: freq = 1.259 MHz     (81 %), step = 93.01 kHz    (333 m%)
    noise: freq = 1.359 MHz   (81.3 %), step = 100.4 kHz    (333 m%)
    noise: freq = 1.468 MHz   (81.7 %), step = 108.4 kHz    (333 m%)
    noise: freq = 1.585 MHz     (82 %), step = 117.1 kHz    (333 m%)
    noise: freq = 1.711 MHz   (82.3 %), step = 126.4 kHz    (333 m%)
    noise: freq = 1.848 MHz   (82.7 %), step = 136.5 kHz    (333 m%)
    noise: freq = 1.995 MHz     (83 %), step = 147.4 kHz    (333 m%)
    noise: freq = 2.154 MHz   (83.3 %), step = 159.2 kHz    (333 m%)
    noise: freq = 2.326 MHz   (83.7 %), step = 171.9 kHz    (333 m%)
    noise: freq = 2.512 MHz     (84 %), step = 185.6 kHz    (333 m%)
    noise: freq = 2.712 MHz   (84.3 %), step = 200.4 kHz    (333 m%)
    noise: freq = 2.929 MHz   (84.7 %), step = 216.4 kHz    (333 m%)
    noise: freq = 3.162 MHz     (85 %), step = 233.6 kHz    (333 m%)
    noise: freq = 3.415 MHz   (85.3 %), step = 252.3 kHz    (333 m%)
    noise: freq = 3.687 MHz   (85.7 %), step = 272.4 kHz    (333 m%)
    noise: freq = 3.981 MHz     (86 %), step = 294.1 kHz    (333 m%)
    noise: freq = 4.299 MHz   (86.3 %), step = 317.6 kHz    (333 m%)
    noise: freq = 4.642 MHz   (86.7 %), step = 342.9 kHz    (333 m%)
    noise: freq = 5.012 MHz     (87 %), step = 370.3 kHz    (333 m%)
    noise: freq = 5.412 MHz   (87.3 %), step = 399.8 kHz    (333 m%)
    noise: freq = 5.843 MHz   (87.7 %), step = 431.7 kHz    (333 m%)
    noise: freq = 6.31 MHz      (88 %), step = 466.2 kHz    (333 m%)
    noise: freq = 6.813 MHz   (88.3 %), step = 503.3 kHz    (333 m%)
    noise: freq = 7.356 MHz   (88.7 %), step = 543.5 kHz    (333 m%)
    noise: freq = 7.943 MHz     (89 %), step = 586.9 kHz    (333 m%)
    noise: freq = 8.577 MHz   (89.3 %), step = 633.7 kHz    (333 m%)
    noise: freq = 9.261 MHz   (89.7 %), step = 684.2 kHz    (333 m%)
    noise: freq = 10 MHz        (90 %), step = 738.8 kHz    (333 m%)
    noise: freq = 10.8 MHz    (90.3 %), step = 797.8 kHz    (333 m%)
    noise: freq = 11.66 MHz   (90.7 %), step = 861.4 kHz    (333 m%)
    noise: freq = 12.59 MHz     (91 %), step = 930.1 kHz    (333 m%)
    noise: freq = 13.59 MHz   (91.3 %), step = 1.004 MHz    (333 m%)
    noise: freq = 14.68 MHz   (91.7 %), step = 1.084 MHz    (333 m%)
    noise: freq = 15.85 MHz     (92 %), step = 1.171 MHz    (333 m%)
    noise: freq = 17.11 MHz   (92.3 %), step = 1.264 MHz    (333 m%)
    noise: freq = 18.48 MHz   (92.7 %), step = 1.365 MHz    (333 m%)
    noise: freq = 19.95 MHz     (93 %), step = 1.474 MHz    (333 m%)
    noise: freq = 21.54 MHz   (93.3 %), step = 1.592 MHz    (333 m%)
    noise: freq = 23.26 MHz   (93.7 %), step = 1.719 MHz    (333 m%)
    noise: freq = 25.12 MHz     (94 %), step = 1.856 MHz    (333 m%)
    noise: freq = 27.12 MHz   (94.3 %), step = 2.004 MHz    (333 m%)
    noise: freq = 29.29 MHz   (94.7 %), step = 2.164 MHz    (333 m%)
    noise: freq = 31.62 MHz     (95 %), step = 2.336 MHz    (333 m%)
    noise: freq = 34.15 MHz   (95.3 %), step = 2.523 MHz    (333 m%)
    noise: freq = 36.87 MHz   (95.7 %), step = 2.724 MHz    (333 m%)
    noise: freq = 39.81 MHz     (96 %), step = 2.941 MHz    (333 m%)
    noise: freq = 42.99 MHz   (96.3 %), step = 3.176 MHz    (333 m%)
    noise: freq = 46.42 MHz   (96.7 %), step = 3.429 MHz    (333 m%)
    noise: freq = 50.12 MHz     (97 %), step = 3.703 MHz    (333 m%)
    noise: freq = 54.12 MHz   (97.3 %), step = 3.998 MHz    (333 m%)
    noise: freq = 58.43 MHz   (97.7 %), step = 4.317 MHz    (333 m%)
    noise: freq = 63.1 MHz      (98 %), step = 4.662 MHz    (333 m%)
    noise: freq = 68.13 MHz   (98.3 %), step = 5.033 MHz    (333 m%)
    noise: freq = 73.56 MHz   (98.7 %), step = 5.435 MHz    (333 m%)
    noise: freq = 79.43 MHz     (99 %), step = 5.869 MHz    (333 m%)
    noise: freq = 85.77 MHz   (99.3 %), step = 6.337 MHz    (333 m%)
    noise: freq = 92.61 MHz   (99.7 %), step = 6.842 MHz    (333 m%)
    noise: freq = 100 MHz      (100 %), step = 7.388 MHz    (333 m%)
Accumulated DC solution time =            41.008 us.
Intrinsic noise analysis time =              81.0571 ms.
Total time required for noise analysis `noise': CPU = 70.501 ms, elapsed = 81.336 ms, util. = 86.7%.
Time accumulated: CPU = 1.03741 s, elapsed = 3.51579 s.
Peak resident memory used = 225 Mbytes.

modelParameter: writing model parameter values to rawfile.

Opening the PSF file ../psf/mc1_separate/014/modelParameter.info ...
element: writing instance parameter values to rawfile.

Opening the PSF file ../psf/mc1_separate/014/element.info ...
outputParameter: writing output parameter values to rawfile.

Opening the PSF file ../psf/mc1_separate/014/outputParameter.info ...
designParamVals: writing netlist parameters to rawfile.

Opening the PSFASCII file ../psf/mc1_separate/014/designParamVals.info ...
primitives: writing primitives to rawfile.

Opening the PSFASCII file ../psf/mc1_separate/014/primitives.info.primitives ...
subckts: writing subcircuits to rawfile.

Opening the PSFASCII file ../psf/mc1_separate/014/subckts.info.subckts ...
15   8.33% 

*****************************************************************************************
* 
* INFO: AMS_processOption = C35B4C3
* 
* INFO: Valid Modules  PIP VG5 HIRES
* 
*****************************************************************************************


******************
DC Analysis `dcOp'
******************

Opening the PSF file ../psf/mc1_separate/015/dcOp.dc ...
Important parameter values:
    reltol = 100e-06
    abstol(V) = 1 uV
    abstol(I) = 1 pA
    temp = 27 C
    tnom = 27 C
    tempeffects = all
    gmindc = 1 pS
    rabsshort = 1 mOhm

Notice from spectre during DC analysis `dcOp', during Monte Carlo analysis `mc1'.
    GminDC = 1 pS is large enough to noticeably affect the DC solution.
        dV(VOUT) = -165.232 uV
        Use the `gmin_check' option to eliminate or expand this report.
    Bad pivoting is found during DC analysis. Option dc_pivot_check=yes is recommended for possible improvement of convergence.


Maximum value achieved for any signal of each quantity: 
V: V(net2) = 3.3 V
I: I(V0:p) = 6.071 uA
Maximum value of each quantity, excluding Verilog-A modules or dangling current sources:
V: V(net3) = 1.6 V
I: I(V0:p) = 6.071 uA

Warning from spectre during check, during DC analysis `dcOp', during Monte Carlo analysis `mc1'.
    WARNING (CMI-2943): Parameter checks have been ignored because the valid value for parameter 'trise' could not be found in 'C1'.
    WARNING (CMI-2943): Parameter checks have been ignored because the valid value for parameter 'trise' could not be found in 'I0.C9<2>.C1'.
    WARNING (CMI-2943): Parameter checks have been ignored because the valid value for parameter 'trise' could not be found in 'I0.C9<1>.C1'.
    WARNING (CMI-2943): Parameter checks have been ignored because the valid value for parameter 'trise' could not be found in 'I0.C9<0>.C1'.
    WARNING (CMI-2943): Parameter checks have been ignored because the valid value for parameter 'trise' could not be found in 'I0.C4.C1'.
        Further occurrences of this warning will be suppressed.

Convergence achieved in 19 iterations.
DC simulation time: CPU = 5.171 ms, elapsed = 6.60181 ms.
Total time required for dc analysis `dcOp': CPU = 6.032 ms, elapsed = 7.46107 ms, util. = 80.8%.
Time accumulated: CPU = 1.08106 s, elapsed = 3.56765 s.
Peak resident memory used = 225 Mbytes.


Notice from spectre during Monte Carlo analysis `mc1'.
    37 warnings suppressed.

dcOpInfo: writing operating point information to rawfile.

Opening the PSF file ../psf/mc1_separate/015/dcOpInfo.info ...

****************
PZ Analysis `pz'
****************

Warning from spectre during PZ analysis `pz', during Monte Carlo analysis `mc1'.
    WARNING: BSIM3v3 MOS Transistor - frequency dependent components are present in the circuit, approximated as AC equivalents at 1.000000e+00Hz for pz analysis.
Notice from spectre during DC analysis, during PZ analysis `pz', during Monte Carlo analysis `mc1'.
    GminDC = 1 pS is large enough to noticeably affect the DC solution.
        dV(I0.MP12:int_d) = -165.193 uV
        Use the `gmin_check' option to eliminate or expand this report.
    Bad pivoting is found during DC analysis. Option dc_pivot_check=yes is recommended for possible improvement of convergence.
Warning from spectre during check, during DC analysis, during PZ analysis `pz', during Monte Carlo analysis `mc1'.
    WARNING (CMI-2943): Parameter checks have been ignored because the valid value for parameter 'trise' could not be found in 'C1'.
    WARNING (CMI-2943): Parameter checks have been ignored because the valid value for parameter 'trise' could not be found in 'I0.C9<2>.C1'.
    WARNING (CMI-2943): Parameter checks have been ignored because the valid value for parameter 'trise' could not be found in 'I0.C9<1>.C1'.
    WARNING (CMI-2943): Parameter checks have been ignored because the valid value for parameter 'trise' could not be found in 'I0.C9<0>.C1'.
    WARNING (CMI-2943): Parameter checks have been ignored because the valid value for parameter 'trise' could not be found in 'I0.C4.C1'.
        Further occurrences of this warning will be suppressed.

Convergence achieved in 19 iterations.
DC simulation time: CPU = 2.897 ms, elapsed = 2.89702 ms.

Opening the PSF file ../psf/mc1_separate/015/pz.pz ...

Notice from spectre at 0 during DC analysis, during PZ analysis `pz', during Monte Carlo analysis `mc1'.
    GminDC = 1 pS is large enough to noticeably affect the DC solution.
        dV(I0.MP12:int_d) = -165.231 uV
        Use the `gmin_check' option to eliminate or expand this report.

Convergence achieved in 2 iterations.
DC simulation time: CPU = 765 us, elapsed = 765.085 us.
                      Poles (Hz)

           Real                       Imaginary                 Qfactor

   1   -4.05618e-02                  0.00000e+00              5.00000e-01 
   2   -6.34218e+01                  0.00000e+00              5.00000e-01 
   3   -6.34583e+01                  0.00000e+00              5.00000e-01 
   4   -2.21725e+04                  0.00000e+00              5.00000e-01 
   5   -3.51479e+04                  0.00000e+00              5.00000e-01 
   6   -6.62351e+05                  0.00000e+00              5.00000e-01 
   7   -2.78500e+06                  0.00000e+00              5.00000e-01 
   8   -6.29395e+06              +/- 7.73552e+06              7.92234e-01 
   9   -6.30937e+07                  0.00000e+00              5.00000e-01 
  10   -1.34573e+08                  0.00000e+00              5.00000e-01 
  11   -2.01235e+08                  0.00000e+00              5.00000e-01 
  12   -3.54964e+08                  0.00000e+00              5.00000e-01 
  13   -1.46188e+11                  0.00000e+00              5.00000e-01 
  14   -3.01143e+11                  0.00000e+00              5.00000e-01 
  15   -7.92640e+11                  0.00000e+00              5.00000e-01 
  16   -9.37151e+11                  0.00000e+00              5.00000e-01 

                      Zeros (Hz)
                      at V(VOUT,0)/V2

           Real                       Imaginary                 Qfactor

   1   -2.52666e-03                  0.00000e+00              5.00000e-01 
   2   -6.34301e+01                  0.00000e+00              5.00000e-01 
   3   -6.34731e+01                  0.00000e+00              5.00000e-01 
   4   -2.20787e+04                  0.00000e+00              5.00000e-01 
   5   -6.01295e+05                  0.00000e+00              5.00000e-01 
   6   -1.47388e+06                  0.00000e+00              5.00000e-01 
   7   -2.23482e+06                  0.00000e+00              5.00000e-01 
   8    5.64120e+07              +/- 1.70182e+07              -5.22257e-01
   9   -6.08926e+07                  0.00000e+00              5.00000e-01 
  10   -1.14408e+08                  0.00000e+00              5.00000e-01 
  11   -1.74125e+08                  0.00000e+00              5.00000e-01 
  12   -2.27761e+08                  0.00000e+00              5.00000e-01 
  13   -1.46076e+11                  0.00000e+00              5.00000e-01 
  14   -3.00648e+11                  0.00000e+00              5.00000e-01 
  15   -9.62720e+11              +/- 5.44981e+09              5.00008e-01 

Constant factor =  2.65921e-02

DC gain =  9.97815e-01


Warning from spectre at 0 during PZ analysis `pz', during Monte Carlo analysis `mc1'.
    WARNING (UWI-8101): The specified waveform format 'psf' (improper context for requested action) could not be added. The simulator will ignore the waveform. Check the application programming interface (API) before running the simulation again.
    WARNING (UWI-8101): The specified waveform format 'psf' (improper context for requested action) could not be added. The simulator will ignore the waveform. Check the application programming interface (API) before running the simulation again.
    WARNING (UWI-8101): The specified waveform format 'psf' (improper context for requested action) could not be added. The simulator will ignore the waveform. Check the application programming interface (API) before running the simulation again.
[...]
    noise: freq = 199.5 mHz     (13 %), step = 14.74 mHz    (333 m%)
    noise: freq = 215.4 mHz   (13.3 %), step = 15.92 mHz    (333 m%)
    noise: freq = 232.6 mHz   (13.7 %), step = 17.19 mHz    (333 m%)
    noise: freq = 251.2 mHz     (14 %), step = 18.56 mHz    (333 m%)
    noise: freq = 271.2 mHz   (14.3 %), step = 20.04 mHz    (333 m%)
    noise: freq = 292.9 mHz   (14.7 %), step = 21.64 mHz    (333 m%)
    noise: freq = 316.2 mHz     (15 %), step = 23.36 mHz    (333 m%)
    noise: freq = 341.5 mHz   (15.3 %), step = 25.23 mHz    (333 m%)
    noise: freq = 368.7 mHz   (15.7 %), step = 27.24 mHz    (333 m%)
    noise: freq = 398.1 mHz     (16 %), step = 29.41 mHz    (333 m%)
    noise: freq = 429.9 mHz   (16.3 %), step = 31.76 mHz    (333 m%)
    noise: freq = 464.2 mHz   (16.7 %), step = 34.29 mHz    (333 m%)
    noise: freq = 501.2 mHz     (17 %), step = 37.03 mHz    (333 m%)
    noise: freq = 541.2 mHz   (17.3 %), step = 39.98 mHz    (333 m%)
    noise: freq = 584.3 mHz   (17.7 %), step = 43.17 mHz    (333 m%)
    noise: freq = 631 mHz       (18 %), step = 46.62 mHz    (333 m%)
    noise: freq = 681.3 mHz   (18.3 %), step = 50.33 mHz    (333 m%)
    noise: freq = 735.6 mHz   (18.7 %), step = 54.35 mHz    (333 m%)
    noise: freq = 794.3 mHz     (19 %), step = 58.69 mHz    (333 m%)
    noise: freq = 857.7 mHz   (19.3 %), step = 63.37 mHz    (333 m%)
    noise: freq = 926.1 mHz   (19.7 %), step = 68.42 mHz    (333 m%)
    noise: freq = 1 Hz          (20 %), step = 73.88 mHz    (333 m%)
    noise: freq = 1.08 Hz     (20.3 %), step = 79.78 mHz    (333 m%)
    noise: freq = 1.166 Hz    (20.7 %), step = 86.14 mHz    (333 m%)
    noise: freq = 1.259 Hz      (21 %), step = 93.01 mHz    (333 m%)
    noise: freq = 1.359 Hz    (21.3 %), step = 100.4 mHz    (333 m%)
    noise: freq = 1.468 Hz    (21.7 %), step = 108.4 mHz    (333 m%)
    noise: freq = 1.585 Hz      (22 %), step = 117.1 mHz    (333 m%)
    noise: freq = 1.711 Hz    (22.3 %), step = 126.4 mHz    (333 m%)
    noise: freq = 1.848 Hz    (22.7 %), step = 136.5 mHz    (333 m%)
    noise: freq = 1.995 Hz      (23 %), step = 147.4 mHz    (333 m%)
    noise: freq = 2.154 Hz    (23.3 %), step = 159.2 mHz    (333 m%)
    noise: freq = 2.326 Hz    (23.7 %), step = 171.9 mHz    (333 m%)
    noise: freq = 2.512 Hz      (24 %), step = 185.6 mHz    (333 m%)
    noise: freq = 2.712 Hz    (24.3 %), step = 200.4 mHz    (333 m%)
    noise: freq = 2.929 Hz    (24.7 %), step = 216.4 mHz    (333 m%)
    noise: freq = 3.162 Hz      (25 %), step = 233.6 mHz    (333 m%)
    noise: freq = 3.415 Hz    (25.3 %), step = 252.3 mHz    (333 m%)
    noise: freq = 3.687 Hz    (25.7 %), step = 272.4 mHz    (333 m%)
    noise: freq = 3.981 Hz      (26 %), step = 294.1 mHz    (333 m%)
    noise: freq = 4.299 Hz    (26.3 %), step = 317.6 mHz    (333 m%)
    noise: freq = 4.642 Hz    (26.7 %), step = 342.9 mHz    (333 m%)
    noise: freq = 5.012 Hz      (27 %), step = 370.3 mHz    (333 m%)
    noise: freq = 5.412 Hz    (27.3 %), step = 399.8 mHz    (333 m%)
    noise: freq = 5.843 Hz    (27.7 %), step = 431.7 mHz    (333 m%)
    noise: freq = 6.31 Hz       (28 %), step = 466.2 mHz    (333 m%)
    noise: freq = 6.813 Hz    (28.3 %), step = 503.3 mHz    (333 m%)
    noise: freq = 7.356 Hz    (28.7 %), step = 543.5 mHz    (333 m%)
    noise: freq = 7.943 Hz      (29 %), step = 586.9 mHz    (333 m%)
    noise: freq = 8.577 Hz    (29.3 %), step = 633.7 mHz    (333 m%)
    noise: freq = 9.261 Hz    (29.7 %), step = 684.2 mHz    (333 m%)
    noise: freq = 10 Hz         (30 %), step = 738.8 mHz    (333 m%)
    noise: freq = 10.8 Hz     (30.3 %), step = 797.8 mHz    (333 m%)
    noise: freq = 11.66 Hz    (30.7 %), step = 861.4 mHz    (333 m%)
    noise: freq = 12.59 Hz      (31 %), step = 930.1 mHz    (333 m%)
    noise: freq = 13.59 Hz    (31.3 %), step = 1.004 Hz     (333 m%)
    noise: freq = 14.68 Hz    (31.7 %), step = 1.084 Hz     (333 m%)
    noise: freq = 15.85 Hz      (32 %), step = 1.171 Hz     (333 m%)
    noise: freq = 17.11 Hz    (32.3 %), step = 1.264 Hz     (333 m%)
    noise: freq = 18.48 Hz    (32.7 %), step = 1.365 Hz     (333 m%)
    noise: freq = 19.95 Hz      (33 %), step = 1.474 Hz     (333 m%)
    noise: freq = 21.54 Hz    (33.3 %), step = 1.592 Hz     (333 m%)
    noise: freq = 23.26 Hz    (33.7 %), step = 1.719 Hz     (333 m%)
    noise: freq = 25.12 Hz      (34 %), step = 1.856 Hz     (333 m%)
    noise: freq = 27.12 Hz    (34.3 %), step = 2.004 Hz     (333 m%)
    noise: freq = 29.29 Hz    (34.7 %), step = 2.164 Hz     (333 m%)
    noise: freq = 31.62 Hz      (35 %), step = 2.336 Hz     (333 m%)
    noise: freq = 34.15 Hz    (35.3 %), step = 2.523 Hz     (333 m%)
    noise: freq = 36.87 Hz    (35.7 %), step = 2.724 Hz     (333 m%)
    noise: freq = 39.81 Hz      (36 %), step = 2.941 Hz     (333 m%)
    noise: freq = 42.99 Hz    (36.3 %), step = 3.176 Hz     (333 m%)
    noise: freq = 46.42 Hz    (36.7 %), step = 3.429 Hz     (333 m%)
    noise: freq = 50.12 Hz      (37 %), step = 3.703 Hz     (333 m%)
    noise: freq = 54.12 Hz    (37.3 %), step = 3.998 Hz     (333 m%)
    noise: freq = 58.43 Hz    (37.7 %), step = 4.317 Hz     (333 m%)
    noise: freq = 63.1 Hz       (38 %), step = 4.662 Hz     (333 m%)
    noise: freq = 68.13 Hz    (38.3 %), step = 5.033 Hz     (333 m%)
    noise: freq = 73.56 Hz    (38.7 %), step = 5.435 Hz     (333 m%)
    noise: freq = 79.43 Hz      (39 %), step = 5.869 Hz     (333 m%)
    noise: freq = 85.77 Hz    (39.3 %), step = 6.337 Hz     (333 m%)
    noise: freq = 92.61 Hz    (39.7 %), step = 6.842 Hz     (333 m%)
    noise: freq = 100 Hz        (40 %), step = 7.388 Hz     (333 m%)
    noise: freq = 108 Hz      (40.3 %), step = 7.978 Hz     (333 m%)
    noise: freq = 116.6 Hz    (40.7 %), step = 8.614 Hz     (333 m%)
    noise: freq = 125.9 Hz      (41 %), step = 9.301 Hz     (333 m%)
    noise: freq = 135.9 Hz    (41.3 %), step = 10.04 Hz     (333 m%)
    noise: freq = 146.8 Hz    (41.7 %), step = 10.84 Hz     (333 m%)
    noise: freq = 158.5 Hz      (42 %), step = 11.71 Hz     (333 m%)
    noise: freq = 171.1 Hz    (42.3 %), step = 12.64 Hz     (333 m%)
    noise: freq = 184.8 Hz    (42.7 %), step = 13.65 Hz     (333 m%)
    noise: freq = 199.5 Hz      (43 %), step = 14.74 Hz     (333 m%)
    noise: freq = 215.4 Hz    (43.3 %), step = 15.92 Hz     (333 m%)
    noise: freq = 232.6 Hz    (43.7 %), step = 17.19 Hz     (333 m%)
    noise: freq = 251.2 Hz      (44 %), step = 18.56 Hz     (333 m%)
    noise: freq = 271.2 Hz    (44.3 %), step = 20.04 Hz     (333 m%)
    noise: freq = 292.9 Hz    (44.7 %), step = 21.64 Hz     (333 m%)
    noise: freq = 316.2 Hz      (45 %), step = 23.36 Hz     (333 m%)
    noise: freq = 341.5 Hz    (45.3 %), step = 25.23 Hz     (333 m%)
    noise: freq = 368.7 Hz    (45.7 %), step = 27.24 Hz     (333 m%)
    noise: freq = 398.1 Hz      (46 %), step = 29.41 Hz     (333 m%)
    noise: freq = 429.9 Hz    (46.3 %), step = 31.76 Hz     (333 m%)
    noise: freq = 464.2 Hz    (46.7 %), step = 34.29 Hz     (333 m%)
    noise: freq = 501.2 Hz      (47 %), step = 37.03 Hz     (333 m%)
    noise: freq = 541.2 Hz    (47.3 %), step = 39.98 Hz     (333 m%)
    noise: freq = 584.3 Hz    (47.7 %), step = 43.17 Hz     (333 m%)
    noise: freq = 631 Hz        (48 %), step = 46.62 Hz     (333 m%)
    noise: freq = 681.3 Hz    (48.3 %), step = 50.33 Hz     (333 m%)
    noise: freq = 735.6 Hz    (48.7 %), step = 54.35 Hz     (333 m%)
    noise: freq = 794.3 Hz      (49 %), step = 58.69 Hz     (333 m%)
    noise: freq = 857.7 Hz    (49.3 %), step = 63.37 Hz     (333 m%)
    noise: freq = 926.1 Hz    (49.7 %), step = 68.42 Hz     (333 m%)
    noise: freq = 1 kHz         (50 %), step = 73.88 Hz     (333 m%)
    noise: freq = 1.08 kHz    (50.3 %), step = 79.78 Hz     (333 m%)
    noise: freq = 1.166 kHz   (50.7 %), step = 86.14 Hz     (333 m%)
    noise: freq = 1.259 kHz     (51 %), step = 93.01 Hz     (333 m%)
    noise: freq = 1.359 kHz   (51.3 %), step = 100.4 Hz     (333 m%)
    noise: freq = 1.468 kHz   (51.7 %), step = 108.4 Hz     (333 m%)
    noise: freq = 1.585 kHz     (52 %), step = 117.1 Hz     (333 m%)
    noise: freq = 1.711 kHz   (52.3 %), step = 126.4 Hz     (333 m%)
    noise: freq = 1.848 kHz   (52.7 %), step = 136.5 Hz     (333 m%)
    noise: freq = 1.995 kHz     (53 %), step = 147.4 Hz     (333 m%)
    noise: freq = 2.154 kHz   (53.3 %), step = 159.2 Hz     (333 m%)
    noise: freq = 2.326 kHz   (53.7 %), step = 171.9 Hz     (333 m%)
    noise: freq = 2.512 kHz     (54 %), step = 185.6 Hz     (333 m%)
    noise: freq = 2.712 kHz   (54.3 %), step = 200.4 Hz     (333 m%)
    noise: freq = 2.929 kHz   (54.7 %), step = 216.4 Hz     (333 m%)
    noise: freq = 3.162 kHz     (55 %), step = 233.6 Hz     (333 m%)
    noise: freq = 3.415 kHz   (55.3 %), step = 252.3 Hz     (333 m%)
    noise: freq = 3.687 kHz   (55.7 %), step = 272.4 Hz     (333 m%)
    noise: freq = 3.981 kHz     (56 %), step = 294.1 Hz     (333 m%)
    noise: freq = 4.299 kHz   (56.3 %), step = 317.6 Hz     (333 m%)
    noise: freq = 4.642 kHz   (56.7 %), step = 342.9 Hz     (333 m%)
    noise: freq = 5.012 kHz     (57 %), step = 370.3 Hz     (333 m%)
    noise: freq = 5.412 kHz   (57.3 %), step = 399.8 Hz     (333 m%)
    noise: freq = 5.843 kHz   (57.7 %), step = 431.7 Hz     (333 m%)
    noise: freq = 6.31 kHz      (58 %), step = 466.2 Hz     (333 m%)
    noise: freq = 6.813 kHz   (58.3 %), step = 503.3 Hz     (333 m%)
    noise: freq = 7.356 kHz   (58.7 %), step = 543.5 Hz     (333 m%)
    noise: freq = 7.943 kHz     (59 %), step = 586.9 Hz     (333 m%)
    noise: freq = 8.577 kHz   (59.3 %), step = 633.7 Hz     (333 m%)
    noise: freq = 9.261 kHz   (59.7 %), step = 684.2 Hz     (333 m%)
    noise: freq = 10 kHz        (60 %), step = 738.8 Hz     (333 m%)
    noise: freq = 10.8 kHz    (60.3 %), step = 797.8 Hz     (333 m%)
    noise: freq = 11.66 kHz   (60.7 %), step = 861.4 Hz     (333 m%)
    noise: freq = 12.59 kHz     (61 %), step = 930.1 Hz     (333 m%)
    noise: freq = 13.59 kHz   (61.3 %), step = 1.004 kHz    (333 m%)
    noise: freq = 14.68 kHz   (61.7 %), step = 1.084 kHz    (333 m%)
    noise: freq = 15.85 kHz     (62 %), step = 1.171 kHz    (333 m%)
    noise: freq = 17.11 kHz   (62.3 %), step = 1.264 kHz    (333 m%)
    noise: freq = 18.48 kHz   (62.7 %), step = 1.365 kHz    (333 m%)
    noise: freq = 19.95 kHz     (63 %), step = 1.474 kHz    (333 m%)
    noise: freq = 21.54 kHz   (63.3 %), step = 1.592 kHz    (333 m%)
    noise: freq = 23.26 kHz   (63.7 %), step = 1.719 kHz    (333 m%)
    noise: freq = 25.12 kHz     (64 %), step = 1.856 kHz    (333 m%)
    noise: freq = 27.12 kHz   (64.3 %), step = 2.004 kHz    (333 m%)
    noise: freq = 29.29 kHz   (64.7 %), step = 2.164 kHz    (333 m%)
    noise: freq = 31.62 kHz     (65 %), step = 2.336 kHz    (333 m%)
    noise: freq = 34.15 kHz   (65.3 %), step = 2.523 kHz    (333 m%)
    noise: freq = 36.87 kHz   (65.7 %), step = 2.724 kHz    (333 m%)
    noise: freq = 39.81 kHz     (66 %), step = 2.941 kHz    (333 m%)
    noise: freq = 42.99 kHz   (66.3 %), step = 3.176 kHz    (333 m%)
    noise: freq = 46.42 kHz   (66.7 %), step = 3.429 kHz    (333 m%)
    noise: freq = 50.12 kHz     (67 %), step = 3.703 kHz    (333 m%)
    noise: freq = 54.12 kHz   (67.3 %), step = 3.998 kHz    (333 m%)
    noise: freq = 58.43 kHz   (67.7 %), step = 4.317 kHz    (333 m%)
    noise: freq = 63.1 kHz      (68 %), step = 4.662 kHz    (333 m%)
    noise: freq = 68.13 kHz   (68.3 %), step = 5.033 kHz    (333 m%)
    noise: freq = 73.56 kHz   (68.7 %), step = 5.435 kHz    (333 m%)
    noise: freq = 79.43 kHz     (69 %), step = 5.869 kHz    (333 m%)
    noise: freq = 85.77 kHz   (69.3 %), step = 6.337 kHz    (333 m%)
    noise: freq = 92.61 kHz   (69.7 %), step = 6.842 kHz    (333 m%)
    noise: freq = 100 kHz       (70 %), step = 7.388 kHz    (333 m%)
    noise: freq = 108 kHz     (70.3 %), step = 7.978 kHz    (333 m%)
    noise: freq = 116.6 kHz   (70.7 %), step = 8.614 kHz    (333 m%)
    noise: freq = 125.9 kHz     (71 %), step = 9.301 kHz    (333 m%)
    noise: freq = 135.9 kHz   (71.3 %), step = 10.04 kHz    (333 m%)
    noise: freq = 146.8 kHz   (71.7 %), step = 10.84 kHz    (333 m%)
    noise: freq = 158.5 kHz     (72 %), step = 11.71 kHz    (333 m%)
    noise: freq = 171.1 kHz   (72.3 %), step = 12.64 kHz    (333 m%)
    noise: freq = 184.8 kHz   (72.7 %), step = 13.65 kHz    (333 m%)
    noise: freq = 199.5 kHz     (73 %), step = 14.74 kHz    (333 m%)
    noise: freq = 215.4 kHz   (73.3 %), step = 15.92 kHz    (333 m%)
    noise: freq = 232.6 kHz   (73.7 %), step = 17.19 kHz    (333 m%)
    noise: freq = 251.2 kHz     (74 %), step = 18.56 kHz    (333 m%)
    noise: freq = 271.2 kHz   (74.3 %), step = 20.04 kHz    (333 m%)
    noise: freq = 292.9 kHz   (74.7 %), step = 21.64 kHz    (333 m%)
    noise: freq = 316.2 kHz     (75 %), step = 23.36 kHz    (333 m%)
    noise: freq = 341.5 kHz   (75.3 %), step = 25.23 kHz    (333 m%)
    noise: freq = 368.7 kHz   (75.7 %), step = 27.24 kHz    (333 m%)
    noise: freq = 398.1 kHz     (76 %), step = 29.41 kHz    (333 m%)
    noise: freq = 429.9 kHz   (76.3 %), step = 31.76 kHz    (333 m%)
    noise: freq = 464.2 kHz   (76.7 %), step = 34.29 kHz    (333 m%)
    noise: freq = 501.2 kHz     (77 %), step = 37.03 kHz    (333 m%)
    noise: freq = 541.2 kHz   (77.3 %), step = 39.98 kHz    (333 m%)
    noise: freq = 584.3 kHz   (77.7 %), step = 43.17 kHz    (333 m%)
    noise: freq = 631 kHz       (78 %), step = 46.62 kHz    (333 m%)
    noise: freq = 681.3 kHz   (78.3 %), step = 50.33 kHz    (333 m%)
    noise: freq = 735.6 kHz   (78.7 %), step = 54.35 kHz    (333 m%)
    noise: freq = 794.3 kHz     (79 %), step = 58.69 kHz    (333 m%)
    noise: freq = 857.7 kHz   (79.3 %), step = 63.37 kHz    (333 m%)
    noise: freq = 926.1 kHz   (79.7 %), step = 68.42 kHz    (333 m%)
    noise: freq = 1 MHz         (80 %), step = 73.88 kHz    (333 m%)
    noise: freq = 1.08 MHz    (80.3 %), step = 79.78 kHz    (333 m%)
    noise: freq = 1.166 MHz   (80.7 %), step = 86.14 kHz    (333 m%)
    noise: freq = 1.259 MHz     (81 %), step = 93.01 kHz    (333 m%)
    noise: freq = 1.359 MHz   (81.3 %), step = 100.4 kHz    (333 m%)
    noise: freq = 1.468 MHz   (81.7 %), step = 108.4 kHz    (333 m%)
    noise: freq = 1.585 MHz     (82 %), step = 117.1 kHz    (333 m%)
    noise: freq = 1.711 MHz   (82.3 %), step = 126.4 kHz    (333 m%)
    noise: freq = 1.848 MHz   (82.7 %), step = 136.5 kHz    (333 m%)
    noise: freq = 1.995 MHz     (83 %), step = 147.4 kHz    (333 m%)
    noise: freq = 2.154 MHz   (83.3 %), step = 159.2 kHz    (333 m%)
    noise: freq = 2.326 MHz   (83.7 %), step = 171.9 kHz    (333 m%)
    noise: freq = 2.512 MHz     (84 %), step = 185.6 kHz    (333 m%)
    noise: freq = 2.712 MHz   (84.3 %), step = 200.4 kHz    (333 m%)
    noise: freq = 2.929 MHz   (84.7 %), step = 216.4 kHz    (333 m%)
    noise: freq = 3.162 MHz     (85 %), step = 233.6 kHz    (333 m%)
    noise: freq = 3.415 MHz   (85.3 %), step = 252.3 kHz    (333 m%)
    noise: freq = 3.687 MHz   (85.7 %), step = 272.4 kHz    (333 m%)
    noise: freq = 3.981 MHz     (86 %), step = 294.1 kHz    (333 m%)
    noise: freq = 4.299 MHz   (86.3 %), step = 317.6 kHz    (333 m%)
    noise: freq = 4.642 MHz   (86.7 %), step = 342.9 kHz    (333 m%)
    noise: freq = 5.012 MHz     (87 %), step = 370.3 kHz    (333 m%)
    noise: freq = 5.412 MHz   (87.3 %), step = 399.8 kHz    (333 m%)
    noise: freq = 5.843 MHz   (87.7 %), step = 431.7 kHz    (333 m%)
    noise: freq = 6.31 MHz      (88 %), step = 466.2 kHz    (333 m%)
    noise: freq = 6.813 MHz   (88.3 %), step = 503.3 kHz    (333 m%)
    noise: freq = 7.356 MHz   (88.7 %), step = 543.5 kHz    (333 m%)
    noise: freq = 7.943 MHz     (89 %), step = 586.9 kHz    (333 m%)
    noise: freq = 8.577 MHz   (89.3 %), step = 633.7 kHz    (333 m%)
    noise: freq = 9.261 MHz   (89.7 %), step = 684.2 kHz    (333 m%)
    noise: freq = 10 MHz        (90 %), step = 738.8 kHz    (333 m%)
    noise: freq = 10.8 MHz    (90.3 %), step = 797.8 kHz    (333 m%)
    noise: freq = 11.66 MHz   (90.7 %), step = 861.4 kHz    (333 m%)
    noise: freq = 12.59 MHz     (91 %), step = 930.1 kHz    (333 m%)
    noise: freq = 13.59 MHz   (91.3 %), step = 1.004 MHz    (333 m%)
    noise: freq = 14.68 MHz   (91.7 %), step = 1.084 MHz    (333 m%)
    noise: freq = 15.85 MHz     (92 %), step = 1.171 MHz    (333 m%)
    noise: freq = 17.11 MHz   (92.3 %), step = 1.264 MHz    (333 m%)
    noise: freq = 18.48 MHz   (92.7 %), step = 1.365 MHz    (333 m%)
    noise: freq = 19.95 MHz     (93 %), step = 1.474 MHz    (333 m%)
    noise: freq = 21.54 MHz   (93.3 %), step = 1.592 MHz    (333 m%)
    noise: freq = 23.26 MHz   (93.7 %), step = 1.719 MHz    (333 m%)
    noise: freq = 25.12 MHz     (94 %), step = 1.856 MHz    (333 m%)
    noise: freq = 27.12 MHz   (94.3 %), step = 2.004 MHz    (333 m%)
    noise: freq = 29.29 MHz   (94.7 %), step = 2.164 MHz    (333 m%)
    noise: freq = 31.62 MHz     (95 %), step = 2.336 MHz    (333 m%)
    noise: freq = 34.15 MHz   (95.3 %), step = 2.523 MHz    (333 m%)
    noise: freq = 36.87 MHz   (95.7 %), step = 2.724 MHz    (333 m%)
    noise: freq = 39.81 MHz     (96 %), step = 2.941 MHz    (333 m%)
    noise: freq = 42.99 MHz   (96.3 %), step = 3.176 MHz    (333 m%)
    noise: freq = 46.42 MHz   (96.7 %), step = 3.429 MHz    (333 m%)
    noise: freq = 50.12 MHz     (97 %), step = 3.703 MHz    (333 m%)
    noise: freq = 54.12 MHz   (97.3 %), step = 3.998 MHz    (333 m%)
    noise: freq = 58.43 MHz   (97.7 %), step = 4.317 MHz    (333 m%)
    noise: freq = 63.1 MHz      (98 %), step = 4.662 MHz    (333 m%)
    noise: freq = 68.13 MHz   (98.3 %), step = 5.033 MHz    (333 m%)
    noise: freq = 73.56 MHz   (98.7 %), step = 5.435 MHz    (333 m%)
    noise: freq = 79.43 MHz     (99 %), step = 5.869 MHz    (333 m%)
    noise: freq = 85.77 MHz   (99.3 %), step = 6.337 MHz    (333 m%)
    noise: freq = 92.61 MHz   (99.7 %), step = 6.842 MHz    (333 m%)
    noise: freq = 100 MHz      (100 %), step = 7.388 MHz    (333 m%)
Accumulated DC solution time =            46.9685 us.
Intrinsic noise analysis time =              75.917 ms.
Total time required for noise analysis `noise': CPU = 67.32 ms, elapsed = 76.0829 ms, util. = 88.5%.
Time accumulated: CPU = 4.75447 s, elapsed = 7.58662 s.
Peak resident memory used = 226 Mbytes.

modelParameter: writing model parameter values to rawfile.

Opening the PSF file ../psf/mc1_separate/026/modelParameter.info ...
element: writing instance parameter values to rawfile.

Opening the PSF file ../psf/mc1_separate/026/element.info ...
outputParameter: writing output parameter values to rawfile.

Opening the PSF file ../psf/mc1_separate/026/outputParameter.info ...
designParamVals: writing netlist parameters to rawfile.

Opening the PSFASCII file ../psf/mc1_separate/026/designParamVals.info ...
primitives: writing primitives to rawfile.

Opening the PSFASCII file ../psf/mc1_separate/026/primitives.info.primitives ...
subckts: writing subcircuits to rawfile.

Opening the PSFASCII file ../psf/mc1_separate/026/subckts.info.subckts ...
    mc1: iteration = 26           (100 %), step = 1            (8.33 %)
Total time required for montecarlo analysis `mc1': CPU = 4.16384 s, elapsed = 4.56081 s, util. = 91.3%.
Time accumulated: CPU = 4.7733 s, elapsed = 7.61637 s.
Peak resident memory used = 226 Mbytes.

Licensing Information:
Lic Summary:
[10:58:16.447048] Cdslmd servers:3000@lic08.ug.kth.se:29000@lic06.ug.kth.se
[10:58:16.971545] Feature usage summary:
[10:58:16.971546] Virtuoso_Multi_mode_Simulation


Aggregate audit (10:58:16 AM, Mon Mar 23, 2026):
Time used: CPU = 4.79 s, elapsed = 7.63 s, util. = 62.7%.
Time spent in licensing: elapsed = 47 ms.
Peak memory used = 226 Mbytes.
Simulation started at: 10:58:09 AM, Mon Mar 23, 2026, ended at: 10:58:16 AM, Mon Mar 23, 2026, with elapsed time (wall clock): 7.63 s.
spectre completes with 0 errors, 358 warnings, and 172 notices.
