
Spectre (R) Circuit Simulator
Version 24.1.0.288.isr5 64bit -- 3 Apr 2025
Copyright (C) 1989-2025 Cadence Design Systems, Inc. All rights reserved worldwide. Cadence and Spectre are registered trademarks of Cadence Design Systems, Inc. All others are the property of their respective holders.

Includes RSA BSAFE(R) Cryptographic or Security Protocol Software from RSA Security, Inc.

User: davidevi   Host: il2244vt26_davidevi   HostID: 11AC2C00   PID: 1047939
Memory  available: 3.0449 TB  physical: 3.2467 TB
Linux   : Rocky Linux release 8.10 (Green Obsidian)
CPU Type: Intel(R) Xeon(R) CPU E7-8857 v2 @ 3.00GHz
        Socket: Processors [Frequency]
        0:       0 [3600.0],  1 [3600.0],  2 [1200.0],  3 [3600.0],  4 [1200.0]
                 5 [1200.0],  6 [2999.9],  7 [2700.0],  8 [1200.0],  9 [1200.0]
                10 [1200.0], 11 [1200.0]
        1:      12 [1200.0], 13 [2999.9], 14 [3600.0], 15 [1200.0], 16 [3600.0]
                17 [2999.9], 18 [2999.9], 19 [2999.9], 20 [2999.9], 21 [1200.0]
                22 [1200.0], 23 [1200.0]
        2:      24 [3600.0], 25 [3600.0], 26 [2600.0], 27 [2900.0], 28 [3600.0]
                29 [2500.0], 30 [2999.9], 31 [3000.0], 32 [1200.0], 33 [2600.0]
                34 [3300.0], 35 [1200.0]
        3:      36 [2999.9], 37 [3000.0], 38 [2100.0], 39 [3600.0], 40 [3600.0]
                41 [1200.0], 42 [3600.0], 43 [3600.0], 44 [3600.0], 45 [3600.0]
                46 [2999.7], 47 [1200.0]
        
System load averages (1min, 5min, 15min) : 17.3 %, 16.5 %, 15.7 %
HPC is enabled


Simulating `input.scs' on il2244vt26_davidevi at 9:06:19 AM, Thur Apr 16, 2026 (process id: 1047939).
Current working directory: /home/davidevi/Desktop/myproject/Sim/VGA/VGA_1_tb/adexl/results/data/MonteCarlo.3/2/Linerity_MC/groupRunDataDir/netlist
Command line:
    /opt/tools/cadence/installs/SPECTRE241/tools/bin/spectre -64  \
        input.scs +escchars +log ../psf/spectre.out -format psfbin  \
        +rtsf -raw ../psf +aps +mt +lqtimeout 900 -maxw 5 -maxn 5  \
        +param /opt/pdk/ams/410/spectre/ams_range.lmts -env ade  \
        -ahdllibdir  \
        /home/davidevi/Desktop/myproject/Sim/VGA/VGA_1_tb/adexl/results/data/MonteCarlo.3/sharedData/Job474/ahdl/input.ahdlSimDB  \
        +logstatus  \
        +adespetkn=0001089D13A302B663E41FB550AF0DF415A679A322D5069144BF588C12F604E07EF416DC01A319B562BB63D346EF00A645A357FA2ECE26847ED765D873CA4F927CE079D15D9175FF34986BDD0AF002BA50FD7FD707E002A700AC1C8119F747EA0EAC79D12DF874D3349879D118F874D334981031BE72D2595D78000036A2

Simulation Id: tudaddJORWPsTqHx
Licensing Information:
[09:06:20.121738] Configured Lic search path (24.01-s002): 3000@lic08.ug.kth.se:29000@lic06.ug.kth.se

Licensing Information:
[09:06:20.300091] Periodic Lic check successful

Loading /opt/tools/cadence/installs/SPECTRE241/tools.lnx86/cmi/lib/64bit/5.0/libinfineon_sh.so ...
Loading /opt/tools/cadence/installs/SPECTRE241/tools.lnx86/cmi/lib/64bit/5.0/libphilips_I_sh.so ...
Loading /opt/tools/cadence/installs/SPECTRE241/tools.lnx86/cmi/lib/64bit/5.0/libphilips_sh.so ...
Loading /opt/tools/cadence/installs/SPECTRE241/tools.lnx86/cmi/lib/64bit/5.0/libsparam_sh.so ...
Loading /opt/tools/cadence/installs/SPECTRE241/tools.lnx86/cmi/lib/64bit/5.0/libstmodels_sh.so ...

Warning from spectre.
    WARNING (SPECTRE-691): This CPU processor does not support x86 advanced vector extensions instructions. This may affect math operations and slow down the simulation.

Reading file:  /home/davidevi/Desktop/myproject/Sim/VGA/VGA_1_tb/adexl/results/data/MonteCarlo.3/2/Linerity_MC/groupRunDataDir/netlist/input.scs
Reading file:  /opt/pdk/ams/410/spectre/ams_range.lmts

Warning from spectre during read of parameter soft limits file `/opt/pdk/ams/410/spectre/ams_range.lmts', during circuit read-in.
    WARNING (SPECTRE-8360): line 1511: `ac' is an undefined primitive device.
    WARNING (SPECTRE-8360): line 1512: `ac' is an undefined primitive device.
    WARNING (SPECTRE-8360): line 1513: `ac' is an undefined primitive device.
    WARNING (SPECTRE-8360): line 1514: `ac' is an undefined primitive device.
    WARNING (SPECTRE-8360): line 1515: `ac' is an undefined primitive device.
        Further occurrences of this warning will be suppressed.

Reading file:  /opt/tools/cadence/installs/SPECTRE241/tools.lnx86/spectre/etc/configs/spectre.cfg
Reading file:  /opt/pdk/ams/410/spectre/c35/soac/soac.scs
Reading file:  /opt/pdk/ams/410/spectre/c35/soac/processOption.scs
Reading file:  /opt/pdk/ams/410/spectre/c35/soac/process.scs
Reading file:  /opt/pdk/ams/410/spectre/c35/soac/soac.va

Warning from spectre during AHDL read-in.
    WARNING (VACOMP-2435): The environment variable CDS_AHDLCMI_ENABLE is no longer supported. Therefore, the simulator will use the default compiled C code flow.

Reading link:  /opt/tools/cadence/installs/SPECTRE241/tools.lnx86/spectre/etc/ahdl/constants.h
Reading file:  /opt/tools/cadence/installs/SPECTRE241/tools.lnx86/spectre/etc/ahdl/constants.vams
Reading link:  /opt/tools/cadence/installs/SPECTRE241/tools.lnx86/spectre/etc/ahdl/discipline.h
Reading file:  /opt/tools/cadence/installs/SPECTRE241/tools.lnx86/spectre/etc/ahdl/disciplines.vams
Reading file:  /opt/pdk/ams/410/spectre/c35/processOption/C35B4C3.scs
Reading file:  /opt/pdk/ams/410/spectre/c35/soac/cmos53.scs
Reading file:  /opt/pdk/ams/410/spectre/c35/soac/res.scs
Reading file:  /opt/pdk/ams/410/spectre/c35/soac/cap.scs
Reading file:  /opt/pdk/ams/410/spectre/c35/soac/bip.scs
Reading file:  /opt/pdk/ams/410/spectre/c35/soac/ind.scs
Reading file:  /opt/pdk/ams/410/spectre/c35/soac/esddiode.scs
Time for NDB Parsing: CPU = 176.632 ms, elapsed = 592.038 ms.
Time accumulated: CPU = 383.282 ms, elapsed = 592.04 ms.
Peak resident memory used = 175 Mbytes.

Existing shared object for module modn_ahdl is up to date.
Installed compiled interface for modn_ahdl.
Existing shared object for module modp_ahdl is up to date.
Installed compiled interface for modp_ahdl.
Existing shared object for module cpoly_ahdl is up to date.
Installed compiled interface for cpoly_ahdl.
Existing shared object for module rpolyh_ahdl is up to date.
Installed compiled interface for rpolyh_ahdl.
Existing shared object for module bsource_19b458 is up to date.
Installed compiled interface for bsource_19b458.
Time for Elaboration: CPU = 60.316 ms, elapsed = 61.9988 ms.
Time accumulated: CPU = 443.798 ms, elapsed = 654.249 ms.
Peak resident memory used = 188 Mbytes.


Notice from spectre during hierarchy flattening.
    The value 'psf' specified for the 'checklimitdest' option will no longer be supported in future releases. Use 'spectre -h' to see other recommended values for the 'checklimitdest' option.


*****************************************************************************************
* 
* INFO: AMS_processOption = C35B4C3
* 
* INFO: Valid Modules  PIP VG5 HIRES
* 
*****************************************************************************************


Time for EDB Visiting: CPU = 9.152 ms, elapsed = 9.15194 ms.
Time accumulated: CPU = 453.134 ms, elapsed = 663.584 ms.
Peak resident memory used = 191 Mbytes.

Loading /opt/tools/cadence/installs/SPECTRE241/tools.lnx86/mdl/lib/64bit/libSpectreEH_sh.so ...

Warning from spectre during initial setup.
    WARNING (SPECTRE-16460): SOAC_cvarm_vspsub:Specified subcircuit master `cvarm' was not found.
    WARNING (SPECTRE-16462): SOAC_cvarm_vspsub:Error in specification of subcircuit master. Assert is ignored.
    WARNING (SPECTRE-16460): SOAC_cvarm_vbs:Specified subcircuit master `cvarm' was not found.
    WARNING (SPECTRE-16462): SOAC_cvarm_vbs:Error in specification of subcircuit master. Assert is ignored.
    WARNING (SPECTRE-16460): SOAC_cvarm_vgb:Specified subcircuit master `cvarm' was not found.
    WARNING (SPECTRE-16462): SOAC_cvarm_vgb:Error in specification of subcircuit master. Assert is ignored.
    WARNING (SPECTRE-16460): SOAC_cvart_vspsub:Specified subcircuit master `cvart' was not found.
    WARNING (SPECTRE-16462): SOAC_cvart_vspsub:Error in specification of subcircuit master. Assert is ignored.
    WARNING (SPECTRE-16460): SOAC_cvart_vbs:Specified subcircuit master `cvart' was not found.
        Further occurrences of this warning will be suppressed.
    WARNING (SPECTRE-16462): SOAC_cvart_vbs:Error in specification of subcircuit master. Assert is ignored.
        Further occurrences of this warning will be suppressed.
Notice from spectre during topology check.
    Only one connection to the following 54 nodes:
        I0.MN6.psub!
        I0.MN5.psub!
        I0.MN4.psub!
        I0.MN3.psub!
        I0.MN2.psub!
        Further occurrences of this notice will be suppressed.
Notice from spectre during initial setup.
    Multithreading is disabled due to the size of the design being too small.


Netlist title:
        // Point Netlist Generated on: Apr 16 09:06:19 2026


Global user options:
         psfversion = 1.4.0
            vabstol = 1e-06
            iabstol = 1e-12
               temp = -40
           homotopy = 5
              limit = delta
         compatible = spice2
               gmin = 1e-12
             rforce = 1
           maxnotes = 5
           maxwarns = 5
             digits = 5
               cols = 80
             pivrel = 0.001
           sensfile = ../psf/sens.output
     checklimitdest = psf
     enable_pre_ver = yes
      ignorezerovar = yes
               save = allpub
             reltol = 0.0001
               tnom = 27
             scalem = 1
              scale = 1

Scoped user options:

Circuit inventory:
              nodes 88
            bsim3v3 35    
     bsource_19b458 2     
          capacitor 38    
         cpoly_ahdl 17    
            isource 1     
          modn_ahdl 19    
          modp_ahdl 16    
           resistor 1     
        rpolyh_ahdl 2     
            vsource 8     

Analysis and control statement inventory:
                 dc 1     
               info 8     
         montecarlo 1     
               tran 1     

Output statements:
             .probe 0     
           .measure 0     
               save 0     

Design checks inventory:
          paramtest 55    
             assert 175   


Notice from spectre during initial setup.
    APS enabled.
    1 notice suppressed.
    72 warnings suppressed.

Time for parsing: CPU = 19.708 ms, elapsed = 616.401 ms.
Time accumulated: CPU = 472.954 ms, elapsed = 1.2801 s.
Peak resident memory used = 197 Mbytes.

~~~~~~~~~~~~~~~~~~~~~~
Pre-Simulation Summary
~~~~~~~~~~~~~~~~~~~~~~
   -   (APS) Multi-threading. The recommended number of threads is 1, consider adding +mt=1 on command line.
~~~~~~~~~~~~~~~~~~~~~~

*************************************************
Monte Carlo Analysis `mc1': iteration = (1 -> 50)
*************************************************
Important parameter values:
    seed = 12345
    sampling = lds
    variations = all
    firstrun = 1
    numruns = 50
    nullmfactorcorrelation = no
    donominal = yes
    method = standard

**** Performing nominal run for `mc1'

******************
DC Analysis `dcOp'
******************

Notice from spectre during DC analysis `dcOp', during Monte Carlo analysis `mc1'.
    No checklimit analysis defined for asserts. A default checklimit analysis 'SpectreChecklimitAnal' has been created with all asserts enabled.


Opening the PSF file ../psf/nom/dcOp.dc ...
Important parameter values:
    reltol = 100e-06
    abstol(V) = 1 uV
    abstol(I) = 1 pA
    temp = -40 C
    tnom = 27 C
    tempeffects = all
    gmindc = 1 pS
    rabsshort = 1 mOhm

Notice from spectre during DC analysis `dcOp', during Monte Carlo analysis `mc1'.
    GminDC = 1 pS is large enough to noticeably affect the DC solution.
        dV(vout) = -224 uV
        Use the `gmin_check' option to eliminate or expand this report.
    Bad pivoting is found during DC analysis. Option dc_pivot_check=yes is recommended for possible improvement of convergence.


Maximum value achieved for any signal of each quantity: 
V: V(S<0>) = 3.3 V
I: I(V0:p) = 6.453 uA
Maximum value of each quantity, excluding Verilog-A modules or dangling current sources:
V: V(vout_filt) = 1.6 V
I: I(V0:p) = 6.453 uA

Warning from spectre during check, during DC analysis `dcOp', during Monte Carlo analysis `mc1'.
    WARNING (CMI-2943): Parameter checks have been ignored because the valid value for parameter 'trise' could not be found in 'C1'.
    WARNING (CMI-2943): Parameter checks have been ignored because the valid value for parameter 'trise' could not be found in 'I0.R2.CM'.
    WARNING (CMI-2943): Parameter checks have been ignored because the valid value for parameter 'trise' could not be found in 'I0.R2.CS1'.
    WARNING (CMI-2943): Parameter checks have been ignored because the valid value for parameter 'trise' could not be found in 'I0.R2.CS0'.
    WARNING (CMI-2943): Parameter checks have been ignored because the valid value for parameter 'trise' could not be found in 'I0.C8<3>.C1'.
        Further occurrences of this warning will be suppressed.

Convergence achieved in 21 iterations.
DC simulation time: CPU = 88.904 ms, elapsed = 93.416 ms.
Total time required for dc analysis `dcOp': CPU = 89.042 ms, elapsed = 93.5512 ms, util. = 95.2%.
Time accumulated: CPU = 586.123 ms, elapsed = 1.39872 s.
Peak resident memory used = 206 Mbytes.


Notice from spectre during Monte Carlo analysis `mc1'.
    34 warnings suppressed.

dcOpInfo: writing operating point information to rawfile.

Opening the PSF file ../psf/nom/dcOpInfo.info ...

************************************************
Transient Analysis `tran': time = (0 s -> 40 ms)
************************************************

Notice from spectre during IC analysis, during transient analysis `tran', during Monte Carlo analysis `mc1'.
    GminDC = 1 pS is large enough to noticeably affect the DC solution.
        dV(vout) = -224 uV
        Use the `gmin_check' option to eliminate or expand this report.
    Bad pivoting is found during DC analysis. Option dc_pivot_check=yes is recommended for possible improvement of convergence.
Warning from spectre during check, during IC analysis, during transient analysis `tran', during Monte Carlo analysis `mc1'.
    WARNING (CMI-2943): Parameter checks have been ignored because the valid value for parameter 'trise' could not be found in 'C1'.
    WARNING (CMI-2943): Parameter checks have been ignored because the valid value for parameter 'trise' could not be found in 'I0.R2.CM'.
    WARNING (CMI-2943): Parameter checks have been ignored because the valid value for parameter 'trise' could not be found in 'I0.R2.CS1'.
    WARNING (CMI-2943): Parameter checks have been ignored because the valid value for parameter 'trise' could not be found in 'I0.R2.CS0'.
    WARNING (CMI-2943): Parameter checks have been ignored because the valid value for parameter 'trise' could not be found in 'I0.C8<3>.C1'.
        Further occurrences of this warning will be suppressed.

Convergence achieved in 2 iterations.
DC simulation time: CPU = 1.201 ms, elapsed = 1.20211 ms.

Opening the PSF file ../psf/nom/tran.tran.tran ...
Important parameter values:
    start = 0 s
    outputstart = 0 s
    stop = 40 ms
    step = 40 us
    maxstep = 400 us
    ic = all
    useprevic = no
    skipdc = no
    reltol = 10e-06
    abstol(V) = 1 uV
    abstol(I) = 1 pA
    temp = -40 C
    tnom = 27 C
    tempeffects = all
    errpreset = conservative
    method = gear2only
    lteratio = 10
    relref = alllocal
    cmin = 0 F
    gmin = 1 pS
    rabsshort = 1 mOhm


Notice from spectre during transient analysis `tran', during Monte Carlo analysis `mc1'.
    Multithreading is disabled due to the size of the design being too small.


Output and IC/nodeset summary:
                 save   8       (current)
                 save   87      (voltage)

    tran: time = 1.028 ms    (2.57 %), step = 47.87 us     (120 m%)
    tran: time = 3.041 ms     (7.6 %), step = 46.96 us     (117 m%)
    tran: time = 5.008 ms    (12.5 %), step = 49.6 us      (124 m%)
    tran: time = 7.021 ms    (17.6 %), step = 48.36 us     (121 m%)
    tran: time = 9.035 ms    (22.6 %), step = 47.33 us     (118 m%)
    tran: time = 11 ms       (27.5 %), step = 50 us        (125 m%)
    tran: time = 13.02 ms    (32.5 %), step = 48.87 us     (122 m%)
    tran: time = 15.03 ms    (37.6 %), step = 47.74 us     (119 m%)
    tran: time = 17.04 ms    (42.6 %), step = 46.86 us     (117 m%)
    tran: time = 19.01 ms    (47.5 %), step = 49.43 us     (124 m%)
    tran: time = 21.02 ms    (52.6 %), step = 48.21 us     (121 m%)
    tran: time = 23.04 ms    (57.6 %), step = 47.22 us     (118 m%)
    tran: time = 25 ms       (62.5 %), step = 50 us        (125 m%)
    tran: time = 27.02 ms    (67.5 %), step = 48.72 us     (122 m%)
    tran: time = 29.03 ms    (72.6 %), step = 47.62 us     (119 m%)
    tran: time = 31.04 ms    (77.6 %), step = 46.77 us     (117 m%)
    tran: time = 33.01 ms    (82.5 %), step = 49.26 us     (123 m%)
    tran: time = 35.02 ms    (87.6 %), step = 48.08 us     (120 m%)
    tran: time = 37.04 ms    (92.6 %), step = 47.12 us     (118 m%)
    tran: time = 39.01 ms    (97.5 %), step = 49.87 us     (125 m%)
Number of accepted tran steps =             851

Maximum value achieved for any signal of each quantity: 
V: V(S<0>) = 3.3 V
I: I(V0:p) = 6.454 uA
Maximum value of each quantity, excluding Verilog-A modules or dangling current sources:
V: V(vout_filt) = 1.614 V
I: I(V0:p) = 6.454 uA

~~~~~~~~~~~~~~~~~~~~~~~~~~~~~~~~~
Post-Transient Simulation Summary
~~~~~~~~~~~~~~~~~~~~~~~~~~~~~~~~~
   -   To further speed up simulation, consider
          add ++aps on command line
   -   Non-default settings that could significantly slow down simulation
          errpreset = conservative, default moderate
          reltol = 10e-06, default 100e-06 (conservative)
~~~~~~~~~~~~~~~~~~~~~~~~~~~~~~~~~


During simulation, the CPU load for active processors is :
         0 (25.0 %)      1 (48.5 %)      2 (59.8 %)      3 (11.7 %)
         4 (18.9 %)      5 (29.4 %)      6 (100.0 %)     7 (4.7 %)
         8 (5.3 %)       9 (3.6 %)      10 (4.1 %)      11 (27.6 %)
        12 (11.6 %)     13 (2.9 %)      14 (67.3 %)     15 (8.7 %)
        16 (1.8 %)      17 (99.4 %)     18 (33.3 %)     19 (5.2 %)
        20 (7.6 %)      21 (1.2 %)      22 (8.8 %)      23 (5.3 %)
        24 (13.5 %)     25 (2.9 %)      26 (7.6 %)      27 (7.6 %)
        28 (3.0 %)      29 (4.7 %)      30 (100.0 %)    31 (5.8 %)
        32 (11.6 %)     33 (55.2 %)     34 (30.2 %)     35 (4.1 %)
        36 (100.0 %)    37 (6.5 %)      38 (3.5 %)      39 (18.2 %)
        40 (25.3 %)     41 (27.2 %)     42 (48.8 %)     43 (7.1 %)
        44 (4.7 %)      45 (3.0 %)      46 (4.1 %)      47 (2.9 %)
        Total: 1089.5%
Initial condition solution time: CPU = 1.236 ms, elapsed = 1.23811 ms.
Intrinsic tran analysis time:    CPU = 518.873 ms, elapsed = 520.201 ms.
Total time required for tran analysis `tran': CPU = 522.418 ms, elapsed = 524.415 ms, util. = 99.6%.
Time accumulated: CPU = 1.11833 s, elapsed = 1.93621 s.
Peak resident memory used = 209 Mbytes.


Notice from spectre during transient analysis `tran', during Monte Carlo analysis `mc1'.
    34 warnings suppressed.

finalTimeOP: writing operating point information to rawfile.

Opening the PSF file ../psf/nom/finalTimeOP.info ...
modelParameter: writing model parameter values to rawfile.

Opening the PSF file ../psf/nom/modelParameter.info ...
element: writing instance parameter values to rawfile.

Opening the PSF file ../psf/nom/element.info ...
outputParameter: writing output parameter values to rawfile.

Opening the PSF file ../psf/nom/outputParameter.info ...
designParamVals: writing netlist parameters to rawfile.

Opening the PSFASCII file ../psf/nom/designParamVals.info ...
primitives: writing primitives to rawfile.

Opening the PSFASCII file ../psf/nom/primitives.info.primitives ...
subckts: writing subcircuits to rawfile.

Opening the PSFASCII file ../psf/nom/subckts.info.subckts ...
Opening iteration number and data-directory mapping file:  /home/davidevi/Desktop/myproject/Sim/VGA/VGA_1_tb/adexl/results/data/MonteCarlo.3/2/Linerity_MC/groupRunDataDir/netlist/../psf/mc1.mapping

Statistical parameters:
    Defined process parameters: 629
    Defined mismatch parameters (subckt based): 86
    Non-referenced mismatch parameters: 80
    Number of random variables: 718
    Gaussian truncation for process parameters: 4.00 sigma
    Gaussian truncation for mismatch parameters: 4.00 sigma


Opening the PSF file ../psf/mc1_dcOp.montecarlo ...

Opening the PSF file ../psf/mc1_dcOpInfo.montecarlo ...

Opening the PSF file ../psf/mc1_tran.montecarlo ...

Opening the PSF file ../psf/mc1_finalTimeOP.montecarlo ...

Opening the PSF file ../psf/mc1_modelParameter.montecarlo ...

Opening the PSF file ../psf/mc1_element.montecarlo ...

Opening the PSF file ../psf/mc1_outputParameter.montecarlo ...

Opening the PSF file ../psf/mc1_designParamVals.montecarlo ...

Opening the PSF file ../psf/mc1_primitives.montecarlo ...

Opening the PSF file ../psf/mc1_subckts.montecarlo ...

**** Performing monte carlo loop for `mc1'

1   0.00% 

*****************************************************************************************
* 
* INFO: AMS_processOption = C35B4C3
* 
* INFO: Valid Modules  PIP VG5 HIRES
* 
*****************************************************************************************


******************
DC Analysis `dcOp'
******************

Opening the PSF file ../psf/mc1_separate/001/dcOp.dc ...
Important parameter values:
    reltol = 100e-06
    abstol(V) = 1 uV
    abstol(I) = 1 pA
    temp = -40 C
    tnom = 27 C
    tempeffects = all
    gmindc = 1 pS
    rabsshort = 1 mOhm

Notice from spectre at iteration = 1 during DC analysis `dcOp', during Monte Carlo analysis `mc1'.
    GminDC = 1 pS is large enough to noticeably affect the DC solution.
        dV(vout) = -224.005 uV
        Use the `gmin_check' option to eliminate or expand this report.
    Bad pivoting is found during DC analysis. Option dc_pivot_check=yes is recommended for possible improvement of convergence.


Maximum value achieved for any signal of each quantity: 
V: V(S<0>) = 3.3 V
I: I(V0:p) = 6.194 uA
Maximum value of each quantity, excluding Verilog-A modules or dangling current sources:
V: V(vout_filt) = 1.6 V
I: I(V0:p) = 6.194 uA

Warning from spectre at iteration = 1 during check, during DC analysis `dcOp', during Monte Carlo analysis `mc1'.
    WARNING (CMI-2943): Parameter checks have been ignored because the valid value for parameter 'trise' could not be found in 'C1'.
    WARNING (CMI-2943): Parameter checks have been ignored because the valid value for parameter 'trise' could not be found in 'I0.R2.CM'.
    WARNING (CMI-2943): Parameter checks have been ignored because the valid value for parameter 'trise' could not be found in 'I0.R2.CS1'.
    WARNING (CMI-2943): Parameter checks have been ignored because the valid value for parameter 'trise' could not be found in 'I0.R2.CS0'.
    WARNING (CMI-2943): Parameter checks have been ignored because the valid value for parameter 'trise' could not be found in 'I0.C8<3>.C1'.
        Further occurrences of this warning will be suppressed.

Convergence achieved in 19 iterations.
DC simulation time: CPU = 6.366 ms, elapsed = 7.90787 ms.
Total time required for dc analysis `dcOp': CPU = 7.106 ms, elapsed = 8.64601 ms, util. = 82.2%.
Time accumulated: CPU = 1.21518 s, elapsed = 2.05148 s.
Peak resident memory used = 212 Mbytes.


Notice from spectre at iteration = 1 during Monte Carlo analysis `mc1'.
    34 warnings suppressed.

dcOpInfo: writing operating point information to rawfile.

Opening the PSF file ../psf/mc1_separate/001/dcOpInfo.info ...

************************************************
Transient Analysis `tran': time = (0 s -> 40 ms)
************************************************

Opening the PSF file ../psf/mc1_separate/001/tran.tran.tran ...

Notice from spectre at iteration = 1 during IC analysis, during transient analysis `tran', during Monte Carlo analysis `mc1'.
    GminDC = 1 pS is large enough to noticeably affect the DC solution.
        dV(vout) = -224.005 uV
        Use the `gmin_check' option to eliminate or expand this report.
    Bad pivoting is found during DC analysis. Option dc_pivot_check=yes is recommended for possible improvement of convergence.
Warning from spectre at iteration = 1 during check, during IC analysis, during transient analysis `tran', during Monte Carlo analysis `mc1'.
    WARNING (CMI-2943): Parameter checks have been ignored because the valid value for parameter 'trise' could not be found in 'C1'.
    WARNING (CMI-2943): Parameter checks have been ignored because the valid value for parameter 'trise' could not be found in 'I0.R2.CM'.
    WARNING (CMI-2943): Parameter checks have been ignored because the valid value for parameter 'trise' could not be found in 'I0.R2.CS1'.
    WARNING (CMI-2943): Parameter checks have been ignored because the valid value for parameter 'trise' could not be found in 'I0.R2.CS0'.
    WARNING (CMI-2943): Parameter checks have been ignored because the valid value for parameter 'trise' could not be found in 'I0.C8<3>.C1'.
        Further occurrences of this warning will be suppressed.

Convergence achieved in 19 iterations.
DC simulation time: CPU = 3.123 ms, elapsed = 3.124 ms.
Important parameter values:
    start = 0 s
    outputstart = 0 s
    stop = 40 ms
    step = 40 us
    maxstep = 400 us
    ic = all
    useprevic = no
    skipdc = no
    reltol = 10e-06
    abstol(V) = 1 uV
    abstol(I) = 1 pA
    temp = -40 C
    tnom = 27 C
    tempeffects = all
    errpreset = conservative
    method = gear2only
    lteratio = 10
    relref = alllocal
    cmin = 0 F
    gmin = 1 pS
    rabsshort = 1 mOhm


Notice from spectre at iteration = 1 during transient analysis `tran', during Monte Carlo analysis `mc1'.
    Multithreading is disabled due to the size of the design being too small.


Output and IC/nodeset summary:
                 save   8       (current)
                 save   87      (voltage)

    tran: time = 1.026 ms    (2.56 %), step = 48.01 us     (120 m%)
    tran: time = 3.04 ms      (7.6 %), step = 47.07 us     (118 m%)
    tran: time = 5.007 ms    (12.5 %), step = 49.77 us     (124 m%)
    tran: time = 7.02 ms     (17.5 %), step = 48.5 us      (121 m%)
    tran: time = 9.034 ms    (22.6 %), step = 47.44 us     (119 m%)
    tran: time = 11 ms       (27.5 %), step = 50 us        (125 m%)
    tran: time = 13.01 ms    (32.5 %), step = 49.02 us     (123 m%)
    tran: time = 15.03 ms    (37.6 %), step = 47.86 us     (120 m%)
    tran: time = 17.04 ms    (42.6 %), step = 46.95 us     (117 m%)
    tran: time = 19.01 ms    (47.5 %), step = 49.58 us     (124 m%)
    tran: time = 21.02 ms    (52.6 %), step = 48.34 us     (121 m%)
    tran: time = 23.04 ms    (57.6 %), step = 47.32 us     (118 m%)
    tran: time = 25 ms       (62.5 %), step = 50 us        (125 m%)
    tran: time = 27.02 ms    (67.5 %), step = 48.84 us     (122 m%)
    tran: time = 29.03 ms    (72.6 %), step = 47.72 us     (119 m%)
    tran: time = 31.04 ms    (77.6 %), step = 46.84 us     (117 m%)
    tran: time = 33.01 ms    (82.5 %), step = 49.38 us     (123 m%)
    tran: time = 35.02 ms    (87.6 %), step = 48.18 us     (120 m%)
    tran: time = 37.04 ms    (92.6 %), step = 47.19 us     (118 m%)
    tran: time = 39 ms       (97.5 %), step = 49.99 us     (125 m%)
Number of accepted tran steps =             851

Maximum value achieved for any signal of each quantity: 
V: V(S<0>) = 3.3 V
I: I(V0:p) = 6.194 uA
Maximum value of each quantity, excluding Verilog-A modules or dangling current sources:
V: V(vout_filt) = 1.614 V
I: I(V0:p) = 6.194 uA

~~~~~~~~~~~~~~~~~~~~~~~~~~~~~~~~~
Post-Transient Simulation Summary
~~~~~~~~~~~~~~~~~~~~~~~~~~~~~~~~~
   -   To further speed up simulation, consider
          add ++aps on command line
   -   Non-default settings that could significantly slow down simulation
          errpreset = conservative, default moderate
          reltol = 10e-06, default 100e-06 (conservative)
~~~~~~~~~~~~~~~~~~~~~~~~~~~~~~~~~


During simulation, the CPU load for active processors is :
         0 (18.6 %)      1 (62.1 %)      2 (46.9 %)      3 (33.6 %)
         4 (19.2 %)      5 (21.4 %)      6 (100.0 %)     7 (3.9 %)
         8 (4.3 %)       9 (2.6 %)      10 (4.3 %)      11 (21.7 %)
        12 (12.3 %)     13 (2.6 %)      14 (76.4 %)     15 (7.6 %)
        16 (1.7 %)      17 (99.6 %)     18 (24.6 %)     19 (6.4 %)
        20 (5.5 %)      21 (3.8 %)      22 (12.3 %)     23 (4.3 %)
        24 (9.9 %)      25 (2.6 %)      26 (7.6 %)      27 (7.3 %)
        28 (3.0 %)      29 (3.8 %)      30 (100.0 %)    31 (4.7 %)
        32 (8.5 %)      33 (66.5 %)     34 (22.0 %)     35 (3.4 %)
        36 (100.0 %)    37 (5.6 %)      38 (21.3 %)     39 (13.7 %)
        40 (20.0 %)     41 (27.0 %)     42 (35.9 %)     43 (5.6 %)
        44 (4.3 %)      45 (2.6 %)      46 (4.3 %)      47 (2.1 %)
        Total: 1077.0%
Initial condition solution time: CPU = 3.158 ms, elapsed = 3.16 ms.
Intrinsic tran analysis time:    CPU = 515.675 ms, elapsed = 517.43 ms.
Total time required for tran analysis `tran': CPU = 520.88 ms, elapsed = 523.268 ms, util. = 99.5%.
Time accumulated: CPU = 1.7435 s, elapsed = 2.58464 s.
Peak resident memory used = 213 Mbytes.


Notice from spectre during transient analysis `tran', during Monte Carlo analysis `mc1'.
    34 warnings suppressed.

finalTimeOP: writing operating point information to rawfile.

Opening the PSF file ../psf/mc1_separate/001/finalTimeOP.info ...
modelParameter: writing model parameter values to rawfile.

Opening the PSF file ../psf/mc1_separate/001/modelParameter.info ...
element: writing instance parameter values to rawfile.

Opening the PSF file ../psf/mc1_separate/001/element.info ...
outputParameter: writing output parameter values to rawfile.

Opening the PSF file ../psf/mc1_separate/001/outputParameter.info ...
designParamVals: writing netlist parameters to rawfile.

Opening the PSFASCII file ../psf/mc1_separate/001/designParamVals.info ...
primitives: writing primitives to rawfile.

Opening the PSFASCII file ../psf/mc1_separate/001/primitives.info.primitives ...
subckts: writing subcircuits to rawfile.

Opening the PSFASCII file ../psf/mc1_separate/001/subckts.info.subckts ...
2   2.04% 

*****************************************************************************************
* 
* INFO: AMS_processOption = C35B4C3
* 
* INFO: Valid Modules  PIP VG5 HIRES
* 
*****************************************************************************************


******************
DC Analysis `dcOp'
******************

Opening the PSF file ../psf/mc1_separate/002/dcOp.dc ...
Important parameter values:
    reltol = 100e-06
    abstol(V) = 1 uV
    abstol(I) = 1 pA
    temp = -40 C
    tnom = 27 C
    tempeffects = all
    gmindc = 1 pS
    rabsshort = 1 mOhm

Notice from spectre during DC analysis `dcOp', during Monte Carlo analysis `mc1'.
    GminDC = 1 pS is large enough to noticeably affect the DC solution.
        dV(vout) = -224.004 uV
        Use the `gmin_check' option to eliminate or expand this report.
    Bad pivoting is found during DC analysis. Option dc_pivot_check=yes is recommended for possible improvement of convergence.


Maximum value achieved for any signal of each quantity: 
V: V(S<0>) = 3.3 V
I: I(V0:p) = 6.49 uA
Maximum value of each quantity, excluding Verilog-A modules or dangling current sources:
V: V(vout_filt) = 1.6 V
I: I(V0:p) = 6.49 uA

Warning from spectre during check, during DC analysis `dcOp', during Monte Carlo analysis `mc1'.
    WARNING (CMI-2943): Parameter checks have been ignored because the valid value for parameter 'trise' could not be found in 'C1'.
    WARNING (CMI-2943): Parameter checks have been ignored because the valid value for parameter 'trise' could not be found in 'I0.R2.CM'.
    WARNING (CMI-2943): Parameter checks have been ignored because the valid value for parameter 'trise' could not be found in 'I0.R2.CS1'.
    WARNING (CMI-2943): Parameter checks have been ignored because the valid value for parameter 'trise' could not be found in 'I0.R2.CS0'.
    WARNING (CMI-2943): Parameter checks have been ignored because the valid value for parameter 'trise' could not be found in 'I0.C8<3>.C1'.
        Further occurrences of this warning will be suppressed.

Convergence achieved in 21 iterations.
DC simulation time: CPU = 6.774 ms, elapsed = 8.0421 ms.
Total time required for dc analysis `dcOp': CPU = 7.283 ms, elapsed = 8.72993 ms, util. = 83.4%.
Time accumulated: CPU = 1.78937 s, elapsed = 2.64307 s.
Peak resident memory used = 213 Mbytes.


Notice from spectre during Monte Carlo analysis `mc1'.
    34 warnings suppressed.

dcOpInfo: writing operating point information to rawfile.

Opening the PSF file ../psf/mc1_separate/002/dcOpInfo.info ...

************************************************
Transient Analysis `tran': time = (0 s -> 40 ms)
************************************************

Opening the PSF file ../psf/mc1_separate/002/tran.tran.tran ...

Notice from spectre during IC analysis, during transient analysis `tran', during Monte Carlo analysis `mc1'.
    GminDC = 1 pS is large enough to noticeably affect the DC solution.
        dV(vout) = -224.004 uV
        Use the `gmin_check' option to eliminate or expand this report.
    Bad pivoting is found during DC analysis. Option dc_pivot_check=yes is recommended for possible improvement of convergence.
Warning from spectre during check, during IC analysis, during transient analysis `tran', during Monte Carlo analysis `mc1'.
    WARNING (CMI-2943): Parameter checks have been ignored because the valid value for parameter 'trise' could not be found in 'C1'.
    WARNING (CMI-2943): Parameter checks have been ignored because the valid value for parameter 'trise' could not be found in 'I0.R2.CM'.
    WARNING (CMI-2943): Parameter checks have been ignored because the valid value for parameter 'trise' could not be found in 'I0.R2.CS1'.
    WARNING (CMI-2943): Parameter checks have been ignored because the valid value for parameter 'trise' could not be found in 'I0.R2.CS0'.
    WARNING (CMI-2943): Parameter checks have been ignored because the valid value for parameter 'trise' could not be found in 'I0.C8<3>.C1'.
        Further occurrences of this warning will be suppressed.

Convergence achieved in 21 iterations.
DC simulation time: CPU = 3.399 ms, elapsed = 3.39913 ms.
Important parameter values:
    start = 0 s
    outputstart = 0 s
    stop = 40 ms
    step = 40 us
    maxstep = 400 us
    ic = all
    useprevic = no
    skipdc = no
    reltol = 10e-06
    abstol(V) = 1 uV
    abstol(I) = 1 pA
    temp = -40 C
    tnom = 27 C
    tempeffects = all
    errpreset = conservative
    method = gear2only
    lteratio = 10
    relref = alllocal
    cmin = 0 F
    gmin = 1 pS
    rabsshort = 1 mOhm


Notice from spectre during transient analysis `tran', during Monte Carlo analysis `mc1'.
    Multithreading is disabled due to the size of the design being too small.


Output and IC/nodeset summary:
                 save   8       (current)
                 save   87      (voltage)

    tran: time = 1.028 ms    (2.57 %), step = 47.85 us     (120 m%)
    tran: time = 3.042 ms     (7.6 %), step = 46.94 us     (117 m%)
    tran: time = 5.009 ms    (12.5 %), step = 49.56 us     (124 m%)
    tran: time = 7.022 ms    (17.6 %), step = 48.32 us     (121 m%)
    tran: time = 9.036 ms    (22.6 %), step = 47.31 us     (118 m%)
    tran: time = 11 ms       (27.5 %), step = 50 us        (125 m%)
    tran: time = 13.02 ms    (32.5 %), step = 48.83 us     (122 m%)
    tran: time = 15.03 ms    (37.6 %), step = 47.71 us     (119 m%)
    tran: time = 17.04 ms    (42.6 %), step = 46.84 us     (117 m%)
    tran: time = 19.01 ms    (47.5 %), step = 49.38 us     (123 m%)
    tran: time = 21.02 ms    (52.6 %), step = 48.17 us     (120 m%)
    tran: time = 23.04 ms    (57.6 %), step = 47.19 us     (118 m%)
    tran: time = 25 ms       (62.5 %), step = 49.98 us     (125 m%)
    tran: time = 27.02 ms    (67.5 %), step = 48.67 us     (122 m%)
    tran: time = 29.03 ms    (72.6 %), step = 47.57 us     (119 m%)
    tran: time = 31.05 ms    (77.6 %), step = 46.73 us     (117 m%)
    tran: time = 33.01 ms    (82.5 %), step = 49.2 us      (123 m%)
    tran: time = 35.03 ms    (87.6 %), step = 48.02 us     (120 m%)
    tran: time = 37.04 ms    (92.6 %), step = 47.08 us     (118 m%)
    tran: time = 39.01 ms    (97.5 %), step = 49.79 us     (124 m%)
Number of accepted tran steps =             851

Maximum value achieved for any signal of each quantity: 
V: V(S<0>) = 3.3 V
I: I(V0:p) = 6.49 uA
Maximum value of each quantity, excluding Verilog-A modules or dangling current sources:
V: V(vout_filt) = 1.614 V
I: I(V0:p) = 6.49 uA

~~~~~~~~~~~~~~~~~~~~~~~~~~~~~~~~~
Post-Transient Simulation Summary
~~~~~~~~~~~~~~~~~~~~~~~~~~~~~~~~~
   -   To further speed up simulation, consider
          add ++aps on command line
   -   Non-default settings that could significantly slow down simulation
          errpreset = conservative, default moderate
          reltol = 10e-06, default 100e-06 (conservative)
~~~~~~~~~~~~~~~~~~~~~~~~~~~~~~~~~


During simulation, the CPU load for active processors is :
         0 (15.3 %)      1 (68.9 %)      2 (38.0 %)      3 (46.1 %)
         4 (18.9 %)      5 (17.7 %)      6 (100.0 %)     7 (3.1 %)
         8 (3.8 %)       9 (3.1 %)      10 (3.4 %)      11 (18.3 %)
        12 (11.4 %)     13 (2.7 %)      14 (81.1 %)     15 (6.1 %)
        16 (1.4 %)      17 (99.7 %)     18 (20.3 %)     19 (5.1 %)
        20 (20.5 %)     21 (4.0 %)      22 (10.9 %)     23 (7.8 %)
        24 (8.0 %)      25 (3.1 %)      26 (6.1 %)      27 (6.8 %)
        28 (4.4 %)      29 (4.1 %)      30 (99.7 %)     31 (4.1 %)
        32 (6.8 %)      33 (72.5 %)     34 (17.7 %)     35 (3.7 %)
        36 (100.0 %)    37 (5.2 %)      38 (36.6 %)     39 (11.6 %)
        40 (16.8 %)     41 (24.7 %)     42 (42.8 %)     43 (5.9 %)
        44 (4.1 %)      45 (2.7 %)      46 (4.5 %)      47 (2.1 %)
        Total: 1101.9%
Initial condition solution time: CPU = 3.435 ms, elapsed = 3.43585 ms.
Intrinsic tran analysis time:    CPU = 516.271 ms, elapsed = 517.713 ms.
Total time required for tran analysis `tran': CPU = 521.736 ms, elapsed = 523.783 ms, util. = 99.6%.
Time accumulated: CPU = 2.3188 s, elapsed = 3.17695 s.
Peak resident memory used = 213 Mbytes.


Notice from spectre during transient analysis `tran', during Monte Carlo analysis `mc1'.
    34 warnings suppressed.

finalTimeOP: writing operating point information to rawfile.

Opening the PSF file ../psf/mc1_separate/002/finalTimeOP.info ...
modelParameter: writing model parameter values to rawfile.

Opening the PSF file ../psf/mc1_separate/002/modelParameter.info ...
element: writing instance parameter values to rawfile.

Opening the PSF file ../psf/mc1_separate/002/element.info ...
outputParameter: writing output parameter values to rawfile.

Opening the PSF file ../psf/mc1_separate/002/outputParameter.info ...
designParamVals: writing netlist parameters to rawfile.

Opening the PSFASCII file ../psf/mc1_separate/002/designParamVals.info ...
primitives: writing primitives to rawfile.

Opening the PSFASCII file ../psf/mc1_separate/002/primitives.info.primitives ...
subckts: writing subcircuits to rawfile.

Opening the PSFASCII file ../psf/mc1_separate/002/subckts.info.subckts ...
3   4.08% 

*****************************************************************************************
* 
* INFO: AMS_processOption = C35B4C3
* 
* INFO: Valid Modules  PIP VG5 HIRES
* 
*****************************************************************************************


******************
DC Analysis `dcOp'
******************

Opening the PSF file ../psf/mc1_separate/003/dcOp.dc ...
Important parameter values:
    reltol = 100e-06
    abstol(V) = 1 uV
    abstol(I) = 1 pA
    temp = -40 C
    tnom = 27 C
    tempeffects = all
    gmindc = 1 pS
    rabsshort = 1 mOhm

Notice from spectre during DC analysis `dcOp', during Monte Carlo analysis `mc1'.
    GminDC = 1 pS is large enough to noticeably affect the DC solution.
        dV(vout) = -224.006 uV
        Use the `gmin_check' option to eliminate or expand this report.
    Bad pivoting is found during DC analysis. Option dc_pivot_check=yes is recommended for possible improvement of convergence.


Maximum value achieved for any signal of each quantity: 
V: V(S<0>) = 3.3 V
I: I(V0:p) = 6.346 uA
Maximum value of each quantity, excluding Verilog-A modules or dangling current sources:
V: V(vout_filt) = 1.6 V
I: I(V0:p) = 6.346 uA

Warning from spectre during check, during DC analysis `dcOp', during Monte Carlo analysis `mc1'.
    WARNING (CMI-2943): Parameter checks have been ignored because the valid value for parameter 'trise' could not be found in 'C1'.
    WARNING (CMI-2943): Parameter checks have been ignored because the valid value for parameter 'trise' could not be found in 'I0.R2.CM'.
    WARNING (CMI-2943): Parameter checks have been ignored because the valid value for parameter 'trise' could not be found in 'I0.R2.CS1'.
    WARNING (CMI-2943): Parameter checks have been ignored because the valid value for parameter 'trise' could not be found in 'I0.R2.CS0'.
    WARNING (CMI-2943): Parameter checks have been ignored because the valid value for parameter 'trise' could not be found in 'I0.C8<3>.C1'.
        Further occurrences of this warning will be suppressed.

Convergence achieved in 21 iterations.
DC simulation time: CPU = 6.24 ms, elapsed = 7.68995 ms.
Total time required for dc analysis `dcOp': CPU = 6.745 ms, elapsed = 8.19302 ms, util. = 82.3%.
Time accumulated: CPU = 2.36478 s, elapsed = 3.23598 s.
Peak resident memory used = 213 Mbytes.


Notice from spectre during Monte Carlo analysis `mc1'.
    34 warnings suppressed.

dcOpInfo: writing operating point information to rawfile.

Opening the PSF file ../psf/mc1_separate/003/dcOpInfo.info ...

************************************************
Transient Analysis `tran': time = (0 s -> 40 ms)
************************************************

Opening the PSF file ../psf/mc1_separate/003/tran.tran.tran ...

Notice from spectre during IC analysis, during transient analysis `tran', during Monte Carlo analysis `mc1'.
    GminDC = 1 pS is large enough to noticeably affect the DC solution.
        dV(vout) = -224.006 uV
        Use the `gmin_check' option to eliminate or expand this report.
    Bad pivoting is found during DC analysis. Option dc_pivot_check=yes is recommended for possible improvement of convergence.
Warning from spectre during check, during IC analysis, during transient analysis `tran', during Monte Carlo analysis `mc1'.
    WARNING (CMI-2943): Parameter checks have been ignored because the valid value for parameter 'trise' could not be found in 'C1'.
    WARNING (CMI-2943): Parameter checks have been ignored because the valid value for parameter 'trise' could not be found in 'I0.R2.CM'.
    WARNING (CMI-2943): Parameter checks have been ignored because the valid value for parameter 'trise' could not be found in 'I0.R2.CS1'.
    WARNING (CMI-2943): Parameter checks have been ignored because the valid value for parameter 'trise' could not be found in 'I0.R2.CS0'.
    WARNING (CMI-2943): Parameter checks have been ignored because the valid value for parameter 'trise' could not be found in 'I0.C8<3>.C1'.
        Further occurrences of this warning will be suppressed.

Convergence achieved in 21 iterations.
DC simulation time: CPU = 3.212 ms, elapsed = 3.21293 ms.
Important parameter values:
    start = 0 s
    outputstart = 0 s
    stop = 40 ms
    step = 40 us
    maxstep = 400 us
    ic = all
    useprevic = no
    skipdc = no
    reltol = 10e-06
    abstol(V) = 1 uV
    abstol(I) = 1 pA
    temp = -40 C
    tnom = 27 C
    tempeffects = all
    errpreset = conservative
    method = gear2only
    lteratio = 10
    relref = alllocal
    cmin = 0 F
    gmin = 1 pS
    rabsshort = 1 mOhm


Notice from spectre during transient analysis `tran', during Monte Carlo analysis `mc1'.
    Multithreading is disabled due to the size of the design being too small.


Output and IC/nodeset summary:
                 save   8       (current)
                 save   87      (voltage)

    tran: time = 1.026 ms    (2.57 %), step = 47.96 us     (120 m%)
    tran: time = 3.04 ms      (7.6 %), step = 47.03 us     (118 m%)
    tran: time = 5.007 ms    (12.5 %), step = 49.72 us     (124 m%)
    tran: time = 7.02 ms     (17.6 %), step = 48.46 us     (121 m%)
    tran: time = 9.034 ms    (22.6 %), step = 47.42 us     (119 m%)
    tran: time = 11 ms       (27.5 %), step = 50 us        (125 m%)
    tran: time = 13.01 ms    (32.5 %), step = 49 us        (123 m%)
    tran: time = 15.03 ms    (37.6 %), step = 47.86 us     (120 m%)
    tran: time = 17.04 ms    (42.6 %), step = 46.95 us     (117 m%)
    tran: time = 19.01 ms    (47.5 %), step = 49.58 us     (124 m%)
    tran: time = 21.02 ms    (52.6 %), step = 48.35 us     (121 m%)
    tran: time = 23.04 ms    (57.6 %), step = 47.33 us     (118 m%)
    tran: time = 25 ms       (62.5 %), step = 50 us        (125 m%)
    tran: time = 27.02 ms    (67.5 %), step = 48.87 us     (122 m%)
    tran: time = 29.03 ms    (72.6 %), step = 47.75 us     (119 m%)
    tran: time = 31.04 ms    (77.6 %), step = 46.87 us     (117 m%)
    tran: time = 33.01 ms    (82.5 %), step = 49.44 us     (124 m%)
    tran: time = 35.02 ms    (87.6 %), step = 48.23 us     (121 m%)
    tran: time = 37.04 ms    (92.6 %), step = 47.24 us     (118 m%)
    tran: time = 39 ms       (97.5 %), step = 50 us        (125 m%)
Number of accepted tran steps =             851

Maximum value achieved for any signal of each quantity: 
V: V(S<0>) = 3.3 V
I: I(V0:p) = 6.346 uA
Maximum value of each quantity, excluding Verilog-A modules or dangling current sources:
V: V(vout_filt) = 1.614 V
I: I(V0:p) = 6.346 uA

~~~~~~~~~~~~~~~~~~~~~~~~~~~~~~~~~
Post-Transient Simulation Summary
~~~~~~~~~~~~~~~~~~~~~~~~~~~~~~~~~
   -   To further speed up simulation, consider
          add ++aps on command line
   -   Non-default settings that could significantly slow down simulation
          errpreset = conservative, default moderate
          reltol = 10e-06, default 100e-06 (conservative)
~~~~~~~~~~~~~~~~~~~~~~~~~~~~~~~~~


During simulation, the CPU load for active processors is :
         0 (13.5 %)      1 (62.5 %)      2 (32.2 %)      3 (40.4 %)
         4 (31.5 %)      5 (14.8 %)      6 (100.0 %)     7 (2.6 %)
         8 (17.9 %)      9 (3.2 %)      10 (3.7 %)      11 (15.8 %)
        12 (13.7 %)     13 (2.6 %)      14 (84.3 %)     15 (5.7 %)
        16 (1.1 %)      17 (99.7 %)     18 (17.5 %)     19 (4.5 %)
        20 (33.8 %)     21 (4.2 %)      22 (12.8 %)     23 (7.1 %)
        24 (7.2 %)      25 (18.9 %)     26 (5.1 %)      27 (6.8 %)
        28 (4.0 %)      29 (4.0 %)      30 (99.7 %)     31 (4.3 %)
        32 (9.3 %)      33 (73.7 %)     34 (15.0 %)     35 (3.7 %)
        36 (100.0 %)    37 (4.9 %)      38 (47.0 %)     39 (10.8 %)
        40 (14.8 %)     41 (20.6 %)     42 (52.6 %)     43 (6.0 %)
        44 (6.5 %)      45 (4.0 %)      46 (4.3 %)      47 (3.2 %)
        Total: 1151.2%
Initial condition solution time: CPU = 3.244 ms, elapsed = 3.24583 ms.
Intrinsic tran analysis time:    CPU = 523.048 ms, elapsed = 524.718 ms.
Total time required for tran analysis `tran': CPU = 528.23 ms, elapsed = 530.539 ms, util. = 99.6%.
Time accumulated: CPU = 2.90038 s, elapsed = 3.77679 s.
Peak resident memory used = 213 Mbytes.


Notice from spectre during transient analysis `tran', during Monte Carlo analysis `mc1'.
    34 warnings suppressed.

finalTimeOP: writing operating point information to rawfile.

Opening the PSF file ../psf/mc1_separate/003/finalTimeOP.info ...
modelParameter: writing model parameter values to rawfile.

Opening the PSF file ../psf/mc1_separate/003/modelParameter.info ...
element: writing instance parameter values to rawfile.

Opening the PSF file ../psf/mc1_separate/003/element.info ...
outputParameter: writing output parameter values to rawfile.

Opening the PSF file ../psf/mc1_separate/003/outputParameter.info ...
designParamVals: writing netlist parameters to rawfile.

Opening the PSFASCII file ../psf/mc1_separate/003/designParamVals.info ...
primitives: writing primitives to rawfile.

Opening the PSFASCII file ../psf/mc1_separate/003/primitives.info.primitives ...
subckts: writing subcircuits to rawfile.

Opening the PSFASCII file ../psf/mc1_separate/003/subckts.info.subckts ...
    mc1: iteration = 3           (4.08 %), step = 1            (2.04 %)
4   6.12% 

*****************************************************************************************
* 
* INFO: AMS_processOption = C35B4C3
* 
* INFO: Valid Modules  PIP VG5 HIRES
* 
*****************************************************************************************


******************
DC Analysis `dcOp'
******************

Opening the PSF file ../psf/mc1_separate/004/dcOp.dc ...
Important parameter values:
    reltol = 100e-06
    abstol(V) = 1 uV
    abstol(I) = 1 pA
    temp = -40 C
    tnom = 27 C
    tempeffects = all
    gmindc = 1 pS
    rabsshort = 1 mOhm

Notice from spectre during DC analysis `dcOp', during Monte Carlo analysis `mc1'.
    GminDC = 1 pS is large enough to noticeably affect the DC solution.
        dV(vout) = -223.837 uV
        Use the `gmin_check' option to eliminate or expand this report.
    Bad pivoting is found during DC analysis. Option dc_pivot_check=yes is recommended for possible improvement of convergence.


Maximum value achieved for any signal of each quantity: 
V: V(S<0>) = 3.3 V
I: I(V0:p) = 6.539 uA
Maximum value of each quantity, excluding Verilog-A modules or dangling current sources:
V: V(net1) = 1.6 V
I: I(V0:p) = 6.539 uA

Warning from spectre during check, during DC analysis `dcOp', during Monte Carlo analysis `mc1'.
    WARNING (CMI-2943): Parameter checks have been ignored because the valid value for parameter 'trise' could not be found in 'C1'.
    WARNING (CMI-2943): Parameter checks have been ignored because the valid value for parameter 'trise' could not be found in 'I0.R2.CM'.
    WARNING (CMI-2943): Parameter checks have been ignored because the valid value for parameter 'trise' could not be found in 'I0.R2.CS1'.
    WARNING (CMI-2943): Parameter checks have been ignored because the valid value for parameter 'trise' could not be found in 'I0.R2.CS0'.
    WARNING (CMI-2943): Parameter checks have been ignored because the valid value for parameter 'trise' could not be found in 'I0.C8<3>.C1'.
        Further occurrences of this warning will be suppressed.

Convergence achieved in 17 iterations.
DC simulation time: CPU = 5.686 ms, elapsed = 6.81305 ms.
Total time required for dc analysis `dcOp': CPU = 6.204 ms, elapsed = 7.32994 ms, util. = 84.6%.
Time accumulated: CPU = 2.9467 s, elapsed = 3.83445 s.
Peak resident memory used = 213 Mbytes.


Notice from spectre during Monte Carlo analysis `mc1'.
    34 warnings suppressed.

dcOpInfo: writing operating point information to rawfile.

Opening the PSF file ../psf/mc1_separate/004/dcOpInfo.info ...

************************************************
Transient Analysis `tran': time = (0 s -> 40 ms)
************************************************

Opening the PSF file ../psf/mc1_separate/004/tran.tran.tran ...

Notice from spectre during IC analysis, during transient analysis `tran', during Monte Carlo analysis `mc1'.
    GminDC = 1 pS is large enough to noticeably affect the DC solution.
        dV(vout) = -223.837 uV
        Use the `gmin_check' option to eliminate or expand this report.
    Bad pivoting is found during DC analysis. Option dc_pivot_check=yes is recommended for possible improvement of convergence.
Warning from spectre during check, during IC analysis, during transient analysis `tran', during Monte Carlo analysis `mc1'.
    WARNING (CMI-2943): Parameter checks have been ignored because the valid value for parameter 'trise' could not be found in 'C1'.
    WARNING (CMI-2943): Parameter checks have been ignored because the valid value for parameter 'trise' could not be found in 'I0.R2.CM'.
    WARNING (CMI-2943): Parameter checks have been ignored because the valid value for parameter 'trise' could not be found in 'I0.R2.CS1'.
    WARNING (CMI-2943): Parameter checks have been ignored because the valid value for parameter 'trise' could not be found in 'I0.R2.CS0'.
    WARNING (CMI-2943): Parameter checks have been ignored because the valid value for parameter 'trise' could not be found in 'I0.C8<3>.C1'.
        Further occurrences of this warning will be suppressed.

Convergence achieved in 17 iterations.
DC simulation time: CPU = 2.756 ms, elapsed = 2.75588 ms.
Important parameter values:
    start = 0 s
    outputstart = 0 s
    stop = 40 ms
    step = 40 us
    maxstep = 400 us
    ic = all
    useprevic = no
    skipdc = no
    reltol = 10e-06
    abstol(V) = 1 uV
    abstol(I) = 1 pA
    temp = -40 C
    tnom = 27 C
    tempeffects = all
    errpreset = conservative
    method = gear2only
    lteratio = 10
    relref = alllocal
    cmin = 0 F
    gmin = 1 pS
    rabsshort = 1 mOhm


Notice from spectre during transient analysis `tran', during Monte Carlo analysis `mc1'.
    Multithreading is disabled due to the size of the design being too small.


Output and IC/nodeset summary:
                 save   8       (current)
                 save   87      (voltage)

    tran: time = 1.022 ms    (2.55 %), step = 48.32 us     (121 m%)
    tran: time = 3.035 ms    (7.59 %), step = 47.33 us     (118 m%)
    tran: time = 5.002 ms    (12.5 %), step = 50 us        (125 m%)
    tran: time = 7.015 ms    (17.5 %), step = 48.92 us     (122 m%)
    tran: time = 9.028 ms    (22.6 %), step = 47.8 us      (120 m%)
    tran: time = 11.04 ms    (27.6 %), step = 46.92 us     (117 m%)
    tran: time = 13.01 ms    (32.5 %), step = 49.57 us     (124 m%)
    tran: time = 15.02 ms    (37.6 %), step = 48.36 us     (121 m%)
    tran: time = 17.03 ms    (42.6 %), step = 47.35 us     (118 m%)
    tran: time = 19 ms       (47.5 %), step = 50 us        (125 m%)
    tran: time = 21.01 ms    (52.5 %), step = 48.96 us     (122 m%)
    tran: time = 23.03 ms    (57.6 %), step = 47.83 us     (120 m%)
    tran: time = 25.04 ms    (62.6 %), step = 46.95 us     (117 m%)
    tran: time = 27.01 ms    (67.5 %), step = 49.61 us     (124 m%)
    tran: time = 29.02 ms    (72.6 %), step = 48.39 us     (121 m%)
    tran: time = 31.03 ms    (77.6 %), step = 47.38 us     (118 m%)
    tran: time = 33 ms       (82.5 %), step = 50 us        (125 m%)
    tran: time = 35.01 ms    (87.5 %), step = 48.99 us     (122 m%)
    tran: time = 37.03 ms    (92.6 %), step = 47.87 us     (120 m%)
    tran: time = 39.04 ms    (97.6 %), step = 46.97 us     (117 m%)
Number of accepted tran steps =             851

Maximum value achieved for any signal of each quantity: 
V: V(S<0>) = 3.3 V
I: I(V0:p) = 6.539 uA
Maximum value of each quantity, excluding Verilog-A modules or dangling current sources:
V: V(vout_filt) = 1.613 V
I: I(V0:p) = 6.539 uA

~~~~~~~~~~~~~~~~~~~~~~~~~~~~~~~~~
Post-Transient Simulation Summary
~~~~~~~~~~~~~~~~~~~~~~~~~~~~~~~~~
   -   To further speed up simulation, consider
          add ++aps on command line
   -   Non-default settings that could significantly slow down simulation
          errpreset = conservative, default moderate
          reltol = 10e-06, default 100e-06 (conservative)
~~~~~~~~~~~~~~~~~~~~~~~~~~~~~~~~~


During simulation, the CPU load for active processors is :
         0 (12.1 %)      1 (66.2 %)      2 (30.0 %)      3 (36.0 %)
         4 (40.1 %)      5 (12.9 %)      6 (100.0 %)     7 (2.4 %)
         8 (17.0 %)      9 (3.2 %)      10 (3.2 %)      11 (13.6 %)
        12 (12.7 %)     13 (2.9 %)      14 (86.5 %)     15 (4.9 %)
        16 (1.2 %)      17 (99.8 %)     18 (15.7 %)     19 (4.1 %)
        20 (42.8 %)     21 (3.6 %)      22 (11.9 %)     23 (6.6 %)
        24 (6.2 %)      25 (27.0 %)     26 (5.1 %)      27 (6.8 %)
        28 (4.4 %)      29 (4.4 %)      30 (99.8 %)     31 (4.6 %)
        32 (22.3 %)     33 (65.7 %)     34 (13.3 %)     35 (3.6 %)
        36 (100.0 %)    37 (4.7 %)      38 (54.2 %)     39 (22.3 %)
        40 (13.2 %)     41 (18.8 %)     42 (45.1 %)     43 (6.6 %)
        44 (6.1 %)      45 (4.4 %)      46 (17.6 %)     47 (2.9 %)
        Total: 1188.4%
Initial condition solution time: CPU = 2.794 ms, elapsed = 2.79617 ms.
Intrinsic tran analysis time:    CPU = 524.306 ms, elapsed = 526.045 ms.
Total time required for tran analysis `tran': CPU = 529.18 ms, elapsed = 531.722 ms, util. = 99.5%.
Time accumulated: CPU = 3.48343 s, elapsed = 4.37615 s.
Peak resident memory used = 213 Mbytes.


Notice from spectre during transient analysis `tran', during Monte Carlo analysis `mc1'.
    34 warnings suppressed.

finalTimeOP: writing operating point information to rawfile.

Opening the PSF file ../psf/mc1_separate/004/finalTimeOP.info ...
modelParameter: writing model parameter values to rawfile.

Opening the PSF file ../psf/mc1_separate/004/modelParameter.info ...
element: writing instance parameter values to rawfile.

Opening the PSF file ../psf/mc1_separate/004/element.info ...
outputParameter: writing output parameter values to rawfile.

Opening the PSF file ../psf/mc1_separate/004/outputParameter.info ...
designParamVals: writing netlist parameters to rawfile.

Opening the PSFASCII file ../psf/mc1_separate/004/designParamVals.info ...
primitives: writing primitives to rawfile.

Opening the PSFASCII file ../psf/mc1_separate/004/primitives.info.primitives ...
subckts: writing subcircuits to rawfile.

Opening the PSFASCII file ../psf/mc1_separate/004/subckts.info.subckts ...
    mc1: iteration = 4           (6.12 %), step = 1            (2.04 %)
5   8.16% 

*****************************************************************************************
* 
* INFO: AMS_processOption = C35B4C3
* 
* INFO: Valid Modules  PIP VG5 HIRES
* 
*****************************************************************************************


******************
DC Analysis `dcOp'
******************

Opening the PSF file ../psf/mc1_separate/005/dcOp.dc ...
Important parameter values:
    reltol = 100e-06
    abstol(V) = 1 uV
    abstol(I) = 1 pA
    temp = -40 C
    tnom = 27 C
    tempeffects = all
    gmindc = 1 pS
    rabsshort = 1 mOhm

Notice from spectre during DC analysis `dcOp', during Monte Carlo analysis `mc1'.
    GminDC = 1 pS is large enough to noticeably affect the DC solution.
        dV(vout) = -224.056 uV
        Use the `gmin_check' option to eliminate or expand this report.
    Bad pivoting is found during DC analysis. Option dc_pivot_check=yes is recommended for possible improvement of convergence.


Maximum value achieved for any signal of each quantity: 
V: V(S<0>) = 3.3 V
I: I(V0:p) = 6.419 uA
Maximum value of each quantity, excluding Verilog-A modules or dangling current sources:
V: V(vout_filt) = 1.601 V
I: I(V0:p) = 6.419 uA

Warning from spectre during check, during DC analysis `dcOp', during Monte Carlo analysis `mc1'.
    WARNING (CMI-2943): Parameter checks have been ignored because the valid value for parameter 'trise' could not be found in 'C1'.
    WARNING (CMI-2943): Parameter checks have been ignored because the valid value for parameter 'trise' could not be found in 'I0.R2.CM'.
    WARNING (CMI-2943): Parameter checks have been ignored because the valid value for parameter 'trise' could not be found in 'I0.R2.CS1'.
    WARNING (CMI-2943): Parameter checks have been ignored because the valid value for parameter 'trise' could not be found in 'I0.R2.CS0'.
    WARNING (CMI-2943): Parameter checks have been ignored because the valid value for parameter 'trise' could not be found in 'I0.C8<3>.C1'.
        Further occurrences of this warning will be suppressed.

Convergence achieved in 21 iterations.
DC simulation time: CPU = 6.153 ms, elapsed = 7.31993 ms.
Total time required for dc analysis `dcOp': CPU = 6.733 ms, elapsed = 7.8969 ms, util. = 85.3%.
Time accumulated: CPU = 3.53469 s, elapsed = 4.44016 s.
Peak resident memory used = 213 Mbytes.


Notice from spectre during Monte Carlo analysis `mc1'.
    34 warnings suppressed.

dcOpInfo: writing operating point information to rawfile.

Opening the PSF file ../psf/mc1_separate/005/dcOpInfo.info ...

************************************************
Transient Analysis `tran': time = (0 s -> 40 ms)
************************************************

Opening the PSF file ../psf/mc1_separate/005/tran.tran.tran ...

Notice from spectre during IC analysis, during transient analysis `tran', during Monte Carlo analysis `mc1'.
    GminDC = 1 pS is large enough to noticeably affect the DC solution.
        dV(vout) = -224.056 uV
        Use the `gmin_check' option to eliminate or expand this report.
    Bad pivoting is found during DC analysis. Option dc_pivot_check=yes is recommended for possible improvement of convergence.
Warning from spectre during check, during IC analysis, during transient analysis `tran', during Monte Carlo analysis `mc1'.
    WARNING (CMI-2943): Parameter checks have been ignored because the valid value for parameter 'trise' could not be found in 'C1'.
    WARNING (CMI-2943): Parameter checks have been ignored because the valid value for parameter 'trise' could not be found in 'I0.R2.CM'.
    WARNING (CMI-2943): Parameter checks have been ignored because the valid value for parameter 'trise' could not be found in 'I0.R2.CS1'.
    WARNING (CMI-2943): Parameter checks have been ignored because the valid value for parameter 'trise' could not be found in 'I0.R2.CS0'.
    WARNING (CMI-2943): Parameter checks have been ignored because the valid value for parameter 'trise' could not be found in 'I0.C8<3>.C1'.
        Further occurrences of this warning will be suppressed.

Convergence achieved in 21 iterations.
DC simulation time: CPU = 3.232 ms, elapsed = 3.23391 ms.
Important parameter values:
    start = 0 s
    outputstart = 0 s
    stop = 40 ms
    step = 40 us
    maxstep = 400 us
    ic = all
    useprevic = no
    skipdc = no
    reltol = 10e-06
    abstol(V) = 1 uV
    abstol(I) = 1 pA
    temp = -40 C
    tnom = 27 C
    tempeffects = all
    errpreset = conservative
    method = gear2only
    lteratio = 10
    relref = alllocal
    cmin = 0 F
    gmin = 1 pS
    rabsshort = 1 mOhm


Notice from spectre during transient analysis `tran', during Monte Carlo analysis `mc1'.
    Multithreading is disabled due to the size of the design being too small.


Output and IC/nodeset summary:
                 save   8       (current)
                 save   87      (voltage)

    tran: time = 1.028 ms    (2.57 %), step = 47.88 us     (120 m%)
    tran: time = 3.041 ms     (7.6 %), step = 46.96 us     (117 m%)
    tran: time = 5.008 ms    (12.5 %), step = 49.58 us     (124 m%)
    tran: time = 7.022 ms    (17.6 %), step = 48.33 us     (121 m%)
    tran: time = 9.036 ms    (22.6 %), step = 47.31 us     (118 m%)
    tran: time = 11 ms       (27.5 %), step = 50 us        (125 m%)
    tran: time = 13.02 ms    (32.5 %), step = 48.81 us     (122 m%)
    tran: time = 15.03 ms    (37.6 %), step = 47.69 us     (119 m%)
    tran: time = 17.04 ms    (42.6 %), step = 46.81 us     (117 m%)
    tran: time = 19.01 ms    (47.5 %), step = 49.32 us     (123 m%)
    tran: time = 21.02 ms    (52.6 %), step = 48.12 us     (120 m%)
    tran: time = 23.04 ms    (57.6 %), step = 47.14 us     (118 m%)
    tran: time = 25.01 ms    (62.5 %), step = 49.89 us     (125 m%)
    tran: time = 27.02 ms    (67.5 %), step = 48.59 us     (121 m%)
    tran: time = 29.03 ms    (72.6 %), step = 47.51 us     (119 m%)
    tran: time = 31.05 ms    (77.6 %), step = 46.67 us     (117 m%)
    tran: time = 33.01 ms    (82.5 %), step = 49.09 us     (123 m%)
    tran: time = 35.03 ms    (87.6 %), step = 47.92 us     (120 m%)
    tran: time = 37.04 ms    (92.6 %), step = 46.99 us     (117 m%)
    tran: time = 39.01 ms    (97.5 %), step = 49.63 us     (124 m%)
Number of accepted tran steps =             851

Maximum value achieved for any signal of each quantity: 
V: V(S<0>) = 3.3 V
I: I(V0:p) = 6.419 uA
Maximum value of each quantity, excluding Verilog-A modules or dangling current sources:
V: V(vout_filt) = 1.614 V
I: I(V0:p) = 6.419 uA

~~~~~~~~~~~~~~~~~~~~~~~~~~~~~~~~~
Post-Transient Simulation Summary
~~~~~~~~~~~~~~~~~~~~~~~~~~~~~~~~~
   -   To further speed up simulation, consider
          add ++aps on command line
   -   Non-default settings that could significantly slow down simulation
          errpreset = conservative, default moderate
          reltol = 10e-06, default 100e-06 (conservative)
~~~~~~~~~~~~~~~~~~~~~~~~~~~~~~~~~


During simulation, the CPU load for active processors is :
         0 (11.4 %)      1 (59.3 %)      2 (29.0 %)      3 (31.9 %)
         4 (47.5 %)      5 (11.7 %)      6 (100.0 %)     7 (2.4 %)
         8 (25.7 %)      9 (3.0 %)      10 (2.8 %)      11 (12.7 %)
        12 (11.7 %)     13 (2.8 %)      14 (88.2 %)     15 (4.3 %)
        16 (1.3 %)      17 (99.8 %)     18 (14.5 %)     19 (4.2 %)
        20 (49.4 %)     21 (4.0 %)      22 (10.6 %)     23 (7.9 %)
        24 (6.4 %)      25 (35.7 %)     26 (4.5 %)      27 (7.4 %)
        28 (4.0 %)      29 (3.8 %)      30 (99.8 %)     31 (4.0 %)
        32 (31.9 %)     33 (60.2 %)     34 (11.9 %)     35 (3.6 %)
        36 (100.0 %)    37 (10.7 %)     38 (59.7 %)     39 (27.8 %)
        40 (11.8 %)     41 (21.1 %)     42 (40.1 %)     43 (6.6 %)
        44 (5.5 %)      45 (4.5 %)      46 (21.7 %)     47 (2.6 %)
        Total: 1221.3%
Initial condition solution time: CPU = 3.276 ms, elapsed = 3.27802 ms.
Intrinsic tran analysis time:    CPU = 522.877 ms, elapsed = 524.487 ms.
Total time required for tran analysis `tran': CPU = 528.146 ms, elapsed = 530.501 ms, util. = 99.6%.
Time accumulated: CPU = 4.07001 s, elapsed = 4.98032 s.
Peak resident memory used = 213 Mbytes.


Notice from spectre during transient analysis `tran', during Monte Carlo analysis `mc1'.
    34 warnings suppressed.

finalTimeOP: writing operating point information to rawfile.

Opening the PSF file ../psf/mc1_separate/005/finalTimeOP.info ...
modelParameter: writing model parameter values to rawfile.

Opening the PSF file ../psf/mc1_separate/005/modelParameter.info ...
element: writing instance parameter values to rawfile.

Opening the PSF file ../psf/mc1_separate/005/element.info ...
outputParameter: writing output parameter values to rawfile.

Opening the PSF file ../psf/mc1_separate/005/outputParameter.info ...
designParamVals: writing netlist parameters to rawfile.

Opening the PSFASCII file ../psf/mc1_separate/005/designParamVals.info ...
primitives: writing primitives to rawfile.

Opening the PSFASCII file ../psf/mc1_separate/005/primitives.info.primitives ...
subckts: writing subcircuits to rawfile.

Opening the PSFASCII file ../psf/mc1_separate/005/subckts.info.subckts ...
    mc1: iteration = 5           (8.16 %), step = 1            (2.04 %)
6  10.20% 

*****************************************************************************************
* 
* INFO: AMS_processOption = C35B4C3
* 
* INFO: Valid Modules  PIP VG5 HIRES
* 
*****************************************************************************************


******************
DC Analysis `dcOp'
******************

Opening the PSF file ../psf/mc1_separate/006/dcOp.dc ...
Important parameter values:
    reltol = 100e-06
    abstol(V) = 1 uV
    abstol(I) = 1 pA
    temp = -40 C
    tnom = 27 C
    tempeffects = all
    gmindc = 1 pS
    rabsshort = 1 mOhm

Notice from spectre during DC analysis `dcOp', during Monte Carlo analysis `mc1'.
    GminDC = 1 pS is large enough to noticeably affect the DC solution.
        dV(vout) = -223.837 uV
        Use the `gmin_check' option to eliminate or expand this report.
    Bad pivoting is found during DC analysis. Option dc_pivot_check=yes is recommended for possible improvement of convergence.


Maximum value achieved for any signal of each quantity: 
V: V(S<0>) = 3.3 V
I: I(V0:p) = 6.458 uA
Maximum value of each quantity, excluding Verilog-A modules or dangling current sources:
V: V(net1) = 1.6 V
I: I(V0:p) = 6.458 uA

Warning from spectre during check, during DC analysis `dcOp', during Monte Carlo analysis `mc1'.
    WARNING (CMI-2943): Parameter checks have been ignored because the valid value for parameter 'trise' could not be found in 'C1'.
    WARNING (CMI-2943): Parameter checks have been ignored because the valid value for parameter 'trise' could not be found in 'I0.R2.CM'.
    WARNING (CMI-2943): Parameter checks have been ignored because the valid value for parameter 'trise' could not be found in 'I0.R2.CS1'.
    WARNING (CMI-2943): Parameter checks have been ignored because the valid value for parameter 'trise' could not be found in 'I0.R2.CS0'.
    WARNING (CMI-2943): Parameter checks have been ignored because the valid value for parameter 'trise' could not be found in 'I0.C8<3>.C1'.
        Further occurrences of this warning will be suppressed.

Convergence achieved in 21 iterations.
DC simulation time: CPU = 6.428 ms, elapsed = 7.77578 ms.
Total time required for dc analysis `dcOp': CPU = 6.997 ms, elapsed = 8.34179 ms, util. = 83.9%.
Time accumulated: CPU = 4.1174 s, elapsed = 5.03955 s.
Peak resident memory used = 213 Mbytes.


Notice from spectre during Monte Carlo analysis `mc1'.
    34 warnings suppressed.

dcOpInfo: writing operating point information to rawfile.

Opening the PSF file ../psf/mc1_separate/006/dcOpInfo.info ...

************************************************
Transient Analysis `tran': time = (0 s -> 40 ms)
************************************************

Opening the PSF file ../psf/mc1_separate/006/tran.tran.tran ...

Notice from spectre during IC analysis, during transient analysis `tran', during Monte Carlo analysis `mc1'.
    GminDC = 1 pS is large enough to noticeably affect the DC solution.
        dV(vout) = -223.837 uV
        Use the `gmin_check' option to eliminate or expand this report.
    Bad pivoting is found during DC analysis. Option dc_pivot_check=yes is recommended for possible improvement of convergence.
Warning from spectre during check, during IC analysis, during transient analysis `tran', during Monte Carlo analysis `mc1'.
    WARNING (CMI-2943): Parameter checks have been ignored because the valid value for parameter 'trise' could not be found in 'C1'.
    WARNING (CMI-2943): Parameter checks have been ignored because the valid value for parameter 'trise' could not be found in 'I0.R2.CM'.
    WARNING (CMI-2943): Parameter checks have been ignored because the valid value for parameter 'trise' could not be found in 'I0.R2.CS1'.
    WARNING (CMI-2943): Parameter checks have been ignored because the valid value for parameter 'trise' could not be found in 'I0.R2.CS0'.
    WARNING (CMI-2943): Parameter checks have been ignored because the valid value for parameter 'trise' could not be found in 'I0.C8<3>.C1'.
        Further occurrences of this warning will be suppressed.

Convergence achieved in 21 iterations.
DC simulation time: CPU = 3.161 ms, elapsed = 3.16215 ms.
Important parameter values:
    start = 0 s
    outputstart = 0 s
    stop = 40 ms
    step = 40 us
    maxstep = 400 us
    ic = all
    useprevic = no
    skipdc = no
    reltol = 10e-06
    abstol(V) = 1 uV
    abstol(I) = 1 pA
    temp = -40 C
    tnom = 27 C
    tempeffects = all
    errpreset = conservative
    method = gear2only
    lteratio = 10
    relref = alllocal
    cmin = 0 F
    gmin = 1 pS
    rabsshort = 1 mOhm


Notice from spectre during transient analysis `tran', during Monte Carlo analysis `mc1'.
    Multithreading is disabled due to the size of the design being too small.


Output and IC/nodeset summary:
                 save   8       (current)
                 save   87      (voltage)

    tran: time = 1.028 ms    (2.57 %), step = 47.84 us     (120 m%)
    tran: time = 3.041 ms     (7.6 %), step = 46.95 us     (117 m%)
    tran: time = 5.008 ms    (12.5 %), step = 49.59 us     (124 m%)
    tran: time = 7.021 ms    (17.6 %), step = 48.36 us     (121 m%)
    tran: time = 9.035 ms    (22.6 %), step = 47.35 us     (118 m%)
    tran: time = 11 ms       (27.5 %), step = 50 us        (125 m%)
    tran: time = 13.01 ms    (32.5 %), step = 48.93 us     (122 m%)
    tran: time = 15.03 ms    (37.6 %), step = 47.8 us      (119 m%)
    tran: time = 17.04 ms    (42.6 %), step = 46.91 us     (117 m%)
    tran: time = 19.01 ms    (47.5 %), step = 49.53 us     (124 m%)
    tran: time = 21.02 ms    (52.6 %), step = 48.32 us     (121 m%)
    tran: time = 23.04 ms    (57.6 %), step = 47.31 us     (118 m%)
    tran: time = 25 ms       (62.5 %), step = 50 us        (125 m%)
    tran: time = 27.02 ms    (67.5 %), step = 48.88 us     (122 m%)
    tran: time = 29.03 ms    (72.6 %), step = 47.76 us     (119 m%)
    tran: time = 31.04 ms    (77.6 %), step = 46.88 us     (117 m%)
    tran: time = 33.01 ms    (82.5 %), step = 49.48 us     (124 m%)
    tran: time = 35.02 ms    (87.6 %), step = 48.27 us     (121 m%)
    tran: time = 37.04 ms    (92.6 %), step = 47.28 us     (118 m%)
    tran: time = 39 ms       (97.5 %), step = 50 us        (125 m%)
Number of accepted tran steps =             851

Maximum value achieved for any signal of each quantity: 
V: V(S<0>) = 3.3 V
I: I(V0:p) = 6.458 uA
Maximum value of each quantity, excluding Verilog-A modules or dangling current sources:
V: V(vout_filt) = 1.613 V
I: I(V0:p) = 6.458 uA

~~~~~~~~~~~~~~~~~~~~~~~~~~~~~~~~~
Post-Transient Simulation Summary
~~~~~~~~~~~~~~~~~~~~~~~~~~~~~~~~~
   -   To further speed up simulation, consider
          add ++aps on command line
   -   Non-default settings that could significantly slow down simulation
          errpreset = conservative, default moderate
          reltol = 10e-06, default 100e-06 (conservative)
~~~~~~~~~~~~~~~~~~~~~~~~~~~~~~~~~


During simulation, the CPU load for active processors is :
         0 (10.9 %)      1 (54.6 %)      2 (26.9 %)      3 (38.5 %)
         4 (42.9 %)      5 (10.6 %)      6 (100.0 %)     7 (2.5 %)
         8 (33.6 %)      9 (2.7 %)      10 (3.4 %)      11 (14.1 %)
        12 (12.1 %)     13 (2.7 %)      14 (89.5 %)     15 (4.2 %)
        16 (1.3 %)      17 (99.8 %)     18 (12.9 %)     19 (4.9 %)
        20 (55.0 %)     21 (3.6 %)      22 (9.6 %)      23 (7.4 %)
        24 (6.1 %)      25 (42.3 %)     26 (4.2 %)      27 (7.2 %)
        28 (4.0 %)      29 (3.4 %)      30 (99.8 %)     31 (4.2 %)
        32 (35.3 %)     33 (55.9 %)     34 (10.9 %)     35 (7.5 %)
        36 (100.0 %)    37 (20.5 %)     38 (63.9 %)     39 (24.9 %)
        40 (11.0 %)     41 (29.7 %)     42 (36.2 %)     43 (6.4 %)
        44 (5.7 %)      45 (4.4 %)      46 (19.3 %)     47 (2.5 %)
        Total: 1248.8%
Initial condition solution time: CPU = 3.197 ms, elapsed = 3.19791 ms.
Intrinsic tran analysis time:    CPU = 519.016 ms, elapsed = 520.794 ms.
Total time required for tran analysis `tran': CPU = 524.126 ms, elapsed = 526.533 ms, util. = 99.5%.
Time accumulated: CPU = 4.64911 s, elapsed = 5.57615 s.
Peak resident memory used = 213 Mbytes.


Notice from spectre during transient analysis `tran', during Monte Carlo analysis `mc1'.
    34 warnings suppressed.

finalTimeOP: writing operating point information to rawfile.

Opening the PSF file ../psf/mc1_separate/006/finalTimeOP.info ...
modelParameter: writing model parameter values to rawfile.

Opening the PSF file ../psf/mc1_separate/006/modelParameter.info ...
element: writing instance parameter values to rawfile.

Opening the PSF file ../psf/mc1_separate/006/element.info ...
outputParameter: writing output parameter values to rawfile.

Opening the PSF file ../psf/mc1_separate/006/outputParameter.info ...
designParamVals: writing netlist parameters to rawfile.

Opening the PSFASCII file ../psf/mc1_separate/006/designParamVals.info ...
primitives: writing primitives to rawfile.

Opening the PSFASCII file ../psf/mc1_separate/006/primitives.info.primitives ...
subckts: writing subcircuits to rawfile.

Opening the PSFASCII file ../psf/mc1_separate/006/subckts.info.subckts ...
    mc1: iteration = 6           (10.2 %), step = 1            (2.04 %)
7  12.24% 

*****************************************************************************************
* 
* INFO: AMS_processOption = C35B4C3
* 
* INFO: Valid Modules  PIP VG5 HIRES
* 
*****************************************************************************************


******************
DC Analysis `dcOp'
******************

Opening the PSF file ../psf/mc1_separate/007/dcOp.dc ...
Important parameter values:
    reltol = 100e-06
    abstol(V) = 1 uV
    abstol(I) = 1 pA
    temp = -40 C
    tnom = 27 C
    tempeffects = all
    gmindc = 1 pS
    rabsshort = 1 mOhm

Notice from spectre during DC analysis `dcOp', during Monte Carlo analysis `mc1'.
    GminDC = 1 pS is large enough to noticeably affect the DC solution.
        dV(vout) = -224.128 uV
        Use the `gmin_check' option to eliminate or expand this report.
    Bad pivoting is found during DC analysis. Option dc_pivot_check=yes is recommended for possible improvement of convergence.


Maximum value achieved for any signal of each quantity: 
V: V(S<0>) = 3.3 V
I: I(V0:p) = 6.639 uA
Maximum value of each quantity, excluding Verilog-A modules or dangling current sources:
V: V(vout_filt) = 1.601 V
I: I(V0:p) = 6.639 uA

Warning from spectre during check, during DC analysis `dcOp', during Monte Carlo analysis `mc1'.
    WARNING (CMI-2943): Parameter checks have been ignored because the valid value for parameter 'trise' could not be found in 'C1'.
    WARNING (CMI-2943): Parameter checks have been ignored because the valid value for parameter 'trise' could not be found in 'I0.R2.CM'.
    WARNING (CMI-2943): Parameter checks have been ignored because the valid value for parameter 'trise' could not be found in 'I0.R2.CS1'.
    WARNING (CMI-2943): Parameter checks have been ignored because the valid value for parameter 'trise' could not be found in 'I0.R2.CS0'.
    WARNING (CMI-2943): Parameter checks have been ignored because the valid value for parameter 'trise' could not be found in 'I0.C8<3>.C1'.
        Further occurrences of this warning will be suppressed.

Convergence achieved in 21 iterations.
DC simulation time: CPU = 6.761 ms, elapsed = 8.04901 ms.
Total time required for dc analysis `dcOp': CPU = 7.434 ms, elapsed = 8.71992 ms, util. = 85.3%.
Time accumulated: CPU = 4.69844 s, elapsed = 5.63861 s.
Peak resident memory used = 213 Mbytes.


Notice from spectre during Monte Carlo analysis `mc1'.
    34 warnings suppressed.

dcOpInfo: writing operating point information to rawfile.

Opening the PSF file ../psf/mc1_separate/007/dcOpInfo.info ...

************************************************
Transient Analysis `tran': time = (0 s -> 40 ms)
************************************************

Opening the PSF file ../psf/mc1_separate/007/tran.tran.tran ...

Notice from spectre during IC analysis, during transient analysis `tran', during Monte Carlo analysis `mc1'.
    GminDC = 1 pS is large enough to noticeably affect the DC solution.
        dV(vout) = -224.128 uV
        Use the `gmin_check' option to eliminate or expand this report.
    Bad pivoting is found during DC analysis. Option dc_pivot_check=yes is recommended for possible improvement of convergence.
Warning from spectre during check, during IC analysis, during transient analysis `tran', during Monte Carlo analysis `mc1'.
    WARNING (CMI-2943): Parameter checks have been ignored because the valid value for parameter 'trise' could not be found in 'C1'.
[...]
element: writing instance parameter values to rawfile.

Opening the PSF file ../psf/mc1_separate/048/element.info ...
outputParameter: writing output parameter values to rawfile.

Opening the PSF file ../psf/mc1_separate/048/outputParameter.info ...
designParamVals: writing netlist parameters to rawfile.

Opening the PSFASCII file ../psf/mc1_separate/048/designParamVals.info ...
primitives: writing primitives to rawfile.

Opening the PSFASCII file ../psf/mc1_separate/048/primitives.info.primitives ...
subckts: writing subcircuits to rawfile.

Opening the PSFASCII file ../psf/mc1_separate/048/subckts.info.subckts ...
    mc1: iteration = 48          (95.9 %), step = 1            (2.04 %)
49  97.96% 

*****************************************************************************************
* 
* INFO: AMS_processOption = C35B4C3
* 
* INFO: Valid Modules  PIP VG5 HIRES
* 
*****************************************************************************************


******************
DC Analysis `dcOp'
******************

Opening the PSF file ../psf/mc1_separate/049/dcOp.dc ...
Important parameter values:
    reltol = 100e-06
    abstol(V) = 1 uV
    abstol(I) = 1 pA
    temp = -40 C
    tnom = 27 C
    tempeffects = all
    gmindc = 1 pS
    rabsshort = 1 mOhm

Notice from spectre during DC analysis `dcOp', during Monte Carlo analysis `mc1'.
    GminDC = 1 pS is large enough to noticeably affect the DC solution.
        dV(vout) = -224.009 uV
        Use the `gmin_check' option to eliminate or expand this report.
    Bad pivoting is found during DC analysis. Option dc_pivot_check=yes is recommended for possible improvement of convergence.


Maximum value achieved for any signal of each quantity: 
V: V(S<0>) = 3.3 V
I: I(V0:p) = 6.496 uA
Maximum value of each quantity, excluding Verilog-A modules or dangling current sources:
V: V(vout_filt) = 1.6 V
I: I(V0:p) = 6.496 uA

Warning from spectre during check, during DC analysis `dcOp', during Monte Carlo analysis `mc1'.
    WARNING (CMI-2943): Parameter checks have been ignored because the valid value for parameter 'trise' could not be found in 'C1'.
    WARNING (CMI-2943): Parameter checks have been ignored because the valid value for parameter 'trise' could not be found in 'I0.R2.CM'.
    WARNING (CMI-2943): Parameter checks have been ignored because the valid value for parameter 'trise' could not be found in 'I0.R2.CS1'.
    WARNING (CMI-2943): Parameter checks have been ignored because the valid value for parameter 'trise' could not be found in 'I0.R2.CS0'.
    WARNING (CMI-2943): Parameter checks have been ignored because the valid value for parameter 'trise' could not be found in 'I0.C8<3>.C1'.
        Further occurrences of this warning will be suppressed.

Convergence achieved in 19 iterations.
DC simulation time: CPU = 5.929 ms, elapsed = 7.55715 ms.
Total time required for dc analysis `dcOp': CPU = 6.415 ms, elapsed = 8.0421 ms, util. = 79.8%.
Time accumulated: CPU = 28.8561 s, elapsed = 30.5684 s.
Peak resident memory used = 214 Mbytes.


Notice from spectre during Monte Carlo analysis `mc1'.
    34 warnings suppressed.

dcOpInfo: writing operating point information to rawfile.

Opening the PSF file ../psf/mc1_separate/049/dcOpInfo.info ...

************************************************
Transient Analysis `tran': time = (0 s -> 40 ms)
************************************************

Opening the PSF file ../psf/mc1_separate/049/tran.tran.tran ...

Notice from spectre during IC analysis, during transient analysis `tran', during Monte Carlo analysis `mc1'.
    GminDC = 1 pS is large enough to noticeably affect the DC solution.
        dV(vout) = -224.009 uV
        Use the `gmin_check' option to eliminate or expand this report.
    Bad pivoting is found during DC analysis. Option dc_pivot_check=yes is recommended for possible improvement of convergence.
Warning from spectre during check, during IC analysis, during transient analysis `tran', during Monte Carlo analysis `mc1'.
    WARNING (CMI-2943): Parameter checks have been ignored because the valid value for parameter 'trise' could not be found in 'C1'.
    WARNING (CMI-2943): Parameter checks have been ignored because the valid value for parameter 'trise' could not be found in 'I0.R2.CM'.
    WARNING (CMI-2943): Parameter checks have been ignored because the valid value for parameter 'trise' could not be found in 'I0.R2.CS1'.
    WARNING (CMI-2943): Parameter checks have been ignored because the valid value for parameter 'trise' could not be found in 'I0.R2.CS0'.
    WARNING (CMI-2943): Parameter checks have been ignored because the valid value for parameter 'trise' could not be found in 'I0.C8<3>.C1'.
        Further occurrences of this warning will be suppressed.

Convergence achieved in 19 iterations.
DC simulation time: CPU = 2.983 ms, elapsed = 2.98381 ms.
Important parameter values:
    start = 0 s
    outputstart = 0 s
    stop = 40 ms
    step = 40 us
    maxstep = 400 us
    ic = all
    useprevic = no
    skipdc = no
    reltol = 10e-06
    abstol(V) = 1 uV
    abstol(I) = 1 pA
    temp = -40 C
    tnom = 27 C
    tempeffects = all
    errpreset = conservative
    method = gear2only
    lteratio = 10
    relref = alllocal
    cmin = 0 F
    gmin = 1 pS
    rabsshort = 1 mOhm


Notice from spectre during transient analysis `tran', during Monte Carlo analysis `mc1'.
    Multithreading is disabled due to the size of the design being too small.


Output and IC/nodeset summary:
                 save   8       (current)
                 save   87      (voltage)

    tran: time = 1.028 ms    (2.57 %), step = 47.85 us     (120 m%)
    tran: time = 3.042 ms     (7.6 %), step = 46.94 us     (117 m%)
    tran: time = 5.009 ms    (12.5 %), step = 49.56 us     (124 m%)
    tran: time = 7.022 ms    (17.6 %), step = 48.32 us     (121 m%)
    tran: time = 9.036 ms    (22.6 %), step = 47.3 us      (118 m%)
    tran: time = 11 ms       (27.5 %), step = 50 us        (125 m%)
    tran: time = 13.02 ms    (32.5 %), step = 48.83 us     (122 m%)
    tran: time = 15.03 ms    (37.6 %), step = 47.7 us      (119 m%)
    tran: time = 17.04 ms    (42.6 %), step = 46.83 us     (117 m%)
    tran: time = 19.01 ms    (47.5 %), step = 49.36 us     (123 m%)
    tran: time = 21.02 ms    (52.6 %), step = 48.16 us     (120 m%)
    tran: time = 23.04 ms    (57.6 %), step = 47.18 us     (118 m%)
    tran: time = 25 ms       (62.5 %), step = 49.97 us     (125 m%)
    tran: time = 27.02 ms    (67.5 %), step = 48.65 us     (122 m%)
    tran: time = 29.03 ms    (72.6 %), step = 47.56 us     (119 m%)
    tran: time = 31.05 ms    (77.6 %), step = 46.72 us     (117 m%)
    tran: time = 33.01 ms    (82.5 %), step = 49.18 us     (123 m%)
    tran: time = 35.03 ms    (87.6 %), step = 48.01 us     (120 m%)
    tran: time = 37.04 ms    (92.6 %), step = 47.06 us     (118 m%)
    tran: time = 39.01 ms    (97.5 %), step = 49.77 us     (124 m%)
Number of accepted tran steps =             851

Maximum value achieved for any signal of each quantity: 
V: V(S<0>) = 3.3 V
I: I(V0:p) = 6.496 uA
Maximum value of each quantity, excluding Verilog-A modules or dangling current sources:
V: V(vout_filt) = 1.614 V
I: I(V0:p) = 6.496 uA

~~~~~~~~~~~~~~~~~~~~~~~~~~~~~~~~~
Post-Transient Simulation Summary
~~~~~~~~~~~~~~~~~~~~~~~~~~~~~~~~~
   -   To further speed up simulation, consider
          add ++aps on command line
   -   Non-default settings that could significantly slow down simulation
          errpreset = conservative, default moderate
          reltol = 10e-06, default 100e-06 (conservative)
~~~~~~~~~~~~~~~~~~~~~~~~~~~~~~~~~


During simulation, the CPU load for active processors is :
         0 (21.8 %)      1 (30.0 %)      2 (15.9 %)      3 (54.3 %)
         4 (29.5 %)      5 (44.6 %)      6 (40.0 %)      7 (13.6 %)
         8 (19.7 %)      9 (7.2 %)      10 (23.2 %)     11 (64.0 %)
        12 (14.4 %)     13 (7.5 %)      14 (42.3 %)     15 (19.0 %)
        16 (59.7 %)     17 (88.1 %)     18 (8.8 %)      19 (25.7 %)
        20 (27.9 %)     21 (7.9 %)      22 (9.6 %)      23 (20.8 %)
        24 (15.2 %)     25 (37.4 %)     26 (18.8 %)     27 (9.4 %)
        28 (33.6 %)     29 (23.6 %)     30 (62.9 %)     31 (46.2 %)
        32 (26.5 %)     33 (24.0 %)     34 (10.5 %)     35 (17.7 %)
        36 (55.1 %)     37 (27.9 %)     38 (52.2 %)     39 (83.2 %)
        40 (19.3 %)     41 (34.3 %)     42 (24.9 %)     43 (21.9 %)
        44 (20.8 %)     45 (7.1 %)      46 (15.2 %)     47 (19.5 %)
        Total: 1402.6%
Initial condition solution time: CPU = 3.019 ms, elapsed = 3.021 ms.
Intrinsic tran analysis time:    CPU = 505 ms, elapsed = 507.13 ms.
Total time required for tran analysis `tran': CPU = 510.2 ms, elapsed = 513.073 ms, util. = 99.4%.
Time accumulated: CPU = 29.3738 s, elapsed = 31.0917 s.
Peak resident memory used = 214 Mbytes.


Notice from spectre during transient analysis `tran', during Monte Carlo analysis `mc1'.
    34 warnings suppressed.

finalTimeOP: writing operating point information to rawfile.

Opening the PSF file ../psf/mc1_separate/049/finalTimeOP.info ...
modelParameter: writing model parameter values to rawfile.

Opening the PSF file ../psf/mc1_separate/049/modelParameter.info ...
element: writing instance parameter values to rawfile.

Opening the PSF file ../psf/mc1_separate/049/element.info ...
outputParameter: writing output parameter values to rawfile.

Opening the PSF file ../psf/mc1_separate/049/outputParameter.info ...
designParamVals: writing netlist parameters to rawfile.

Opening the PSFASCII file ../psf/mc1_separate/049/designParamVals.info ...
primitives: writing primitives to rawfile.

Opening the PSFASCII file ../psf/mc1_separate/049/primitives.info.primitives ...
subckts: writing subcircuits to rawfile.

Opening the PSFASCII file ../psf/mc1_separate/049/subckts.info.subckts ...
    mc1: iteration = 49            (98 %), step = 1            (2.04 %)
50 100.00% 

*****************************************************************************************
* 
* INFO: AMS_processOption = C35B4C3
* 
* INFO: Valid Modules  PIP VG5 HIRES
* 
*****************************************************************************************


******************
DC Analysis `dcOp'
******************

Opening the PSF file ../psf/mc1_separate/050/dcOp.dc ...
Important parameter values:
    reltol = 100e-06
    abstol(V) = 1 uV
    abstol(I) = 1 pA
    temp = -40 C
    tnom = 27 C
    tempeffects = all
    gmindc = 1 pS
    rabsshort = 1 mOhm

Notice from spectre during DC analysis `dcOp', during Monte Carlo analysis `mc1'.
    GminDC = 1 pS is large enough to noticeably affect the DC solution.
        dV(vout) = -224.088 uV
        Use the `gmin_check' option to eliminate or expand this report.
    Bad pivoting is found during DC analysis. Option dc_pivot_check=yes is recommended for possible improvement of convergence.


Maximum value achieved for any signal of each quantity: 
V: V(S<0>) = 3.3 V
I: I(V0:p) = 6.431 uA
Maximum value of each quantity, excluding Verilog-A modules or dangling current sources:
V: V(vout_filt) = 1.601 V
I: I(V0:p) = 6.431 uA

Warning from spectre during check, during DC analysis `dcOp', during Monte Carlo analysis `mc1'.
    WARNING (CMI-2943): Parameter checks have been ignored because the valid value for parameter 'trise' could not be found in 'C1'.
    WARNING (CMI-2943): Parameter checks have been ignored because the valid value for parameter 'trise' could not be found in 'I0.R2.CM'.
    WARNING (CMI-2943): Parameter checks have been ignored because the valid value for parameter 'trise' could not be found in 'I0.R2.CS1'.
    WARNING (CMI-2943): Parameter checks have been ignored because the valid value for parameter 'trise' could not be found in 'I0.R2.CS0'.
    WARNING (CMI-2943): Parameter checks have been ignored because the valid value for parameter 'trise' could not be found in 'I0.C8<3>.C1'.
        Further occurrences of this warning will be suppressed.

Convergence achieved in 18 iterations.
DC simulation time: CPU = 6.21 ms, elapsed = 7.84302 ms.
Total time required for dc analysis `dcOp': CPU = 6.782 ms, elapsed = 8.41284 ms, util. = 80.6%.
Time accumulated: CPU = 29.4211 s, elapsed = 31.1525 s.
Peak resident memory used = 214 Mbytes.


Notice from spectre during Monte Carlo analysis `mc1'.
    34 warnings suppressed.

dcOpInfo: writing operating point information to rawfile.

Opening the PSF file ../psf/mc1_separate/050/dcOpInfo.info ...

************************************************
Transient Analysis `tran': time = (0 s -> 40 ms)
************************************************

Opening the PSF file ../psf/mc1_separate/050/tran.tran.tran ...

Notice from spectre during IC analysis, during transient analysis `tran', during Monte Carlo analysis `mc1'.
    GminDC = 1 pS is large enough to noticeably affect the DC solution.
        dV(vout) = -224.088 uV
        Use the `gmin_check' option to eliminate or expand this report.
    Bad pivoting is found during DC analysis. Option dc_pivot_check=yes is recommended for possible improvement of convergence.
Warning from spectre during check, during IC analysis, during transient analysis `tran', during Monte Carlo analysis `mc1'.
    WARNING (CMI-2943): Parameter checks have been ignored because the valid value for parameter 'trise' could not be found in 'C1'.
    WARNING (CMI-2943): Parameter checks have been ignored because the valid value for parameter 'trise' could not be found in 'I0.R2.CM'.
    WARNING (CMI-2943): Parameter checks have been ignored because the valid value for parameter 'trise' could not be found in 'I0.R2.CS1'.
    WARNING (CMI-2943): Parameter checks have been ignored because the valid value for parameter 'trise' could not be found in 'I0.R2.CS0'.
    WARNING (CMI-2943): Parameter checks have been ignored because the valid value for parameter 'trise' could not be found in 'I0.C8<3>.C1'.
        Further occurrences of this warning will be suppressed.

Convergence achieved in 18 iterations.
DC simulation time: CPU = 3.068 ms, elapsed = 3.06797 ms.
Important parameter values:
    start = 0 s
    outputstart = 0 s
    stop = 40 ms
    step = 40 us
    maxstep = 400 us
    ic = all
    useprevic = no
    skipdc = no
    reltol = 10e-06
    abstol(V) = 1 uV
    abstol(I) = 1 pA
    temp = -40 C
    tnom = 27 C
    tempeffects = all
    errpreset = conservative
    method = gear2only
    lteratio = 10
    relref = alllocal
    cmin = 0 F
    gmin = 1 pS
    rabsshort = 1 mOhm


Notice from spectre during transient analysis `tran', during Monte Carlo analysis `mc1'.
    Multithreading is disabled due to the size of the design being too small.


Output and IC/nodeset summary:
                 save   8       (current)
                 save   87      (voltage)

    tran: time = 1.028 ms    (2.57 %), step = 47.84 us     (120 m%)
    tran: time = 3.042 ms     (7.6 %), step = 46.93 us     (117 m%)
    tran: time = 5.009 ms    (12.5 %), step = 49.51 us     (124 m%)
    tran: time = 7.023 ms    (17.6 %), step = 48.27 us     (121 m%)
    tran: time = 9.037 ms    (22.6 %), step = 47.26 us     (118 m%)
    tran: time = 11 ms       (27.5 %), step = 50 us        (125 m%)
    tran: time = 13.02 ms    (32.5 %), step = 48.73 us     (122 m%)
    tran: time = 15.03 ms    (37.6 %), step = 47.61 us     (119 m%)
    tran: time = 17.05 ms    (42.6 %), step = 46.75 us     (117 m%)
    tran: time = 19.01 ms    (47.5 %), step = 49.21 us     (123 m%)
    tran: time = 21.03 ms    (52.6 %), step = 48.02 us     (120 m%)
    tran: time = 23.04 ms    (57.6 %), step = 47.06 us     (118 m%)
    tran: time = 25.01 ms    (62.5 %), step = 49.75 us     (124 m%)
    tran: time = 27.02 ms    (67.6 %), step = 48.46 us     (121 m%)
    tran: time = 29.03 ms    (72.6 %), step = 47.41 us     (119 m%)
    tran: time = 31 ms       (77.5 %), step = 50 us        (125 m%)
    tran: time = 33.02 ms    (82.5 %), step = 48.93 us     (122 m%)
    tran: time = 35.03 ms    (87.6 %), step = 47.78 us     (119 m%)
    tran: time = 37.04 ms    (92.6 %), step = 46.88 us     (117 m%)
    tran: time = 39.01 ms    (97.5 %), step = 49.43 us     (124 m%)
Number of accepted tran steps =             851

Maximum value achieved for any signal of each quantity: 
V: V(S<0>) = 3.3 V
I: I(V0:p) = 6.431 uA
Maximum value of each quantity, excluding Verilog-A modules or dangling current sources:
V: V(vout_filt) = 1.614 V
I: I(V0:p) = 6.431 uA

~~~~~~~~~~~~~~~~~~~~~~~~~~~~~~~~~
Post-Transient Simulation Summary
~~~~~~~~~~~~~~~~~~~~~~~~~~~~~~~~~
   -   To further speed up simulation, consider
          add ++aps on command line
   -   Non-default settings that could significantly slow down simulation
          errpreset = conservative, default moderate
          reltol = 10e-06, default 100e-06 (conservative)
~~~~~~~~~~~~~~~~~~~~~~~~~~~~~~~~~


During simulation, the CPU load for active processors is :
         0 (23.3 %)      1 (29.7 %)      2 (17.4 %)      3 (53.5 %)
         4 (30.8 %)      5 (43.8 %)      6 (39.5 %)      7 (13.8 %)
         8 (19.5 %)      9 (7.6 %)      10 (22.8 %)     11 (64.6 %)
        12 (14.2 %)     13 (7.4 %)      14 (41.7 %)     15 (18.7 %)
        16 (58.6 %)     17 (88.3 %)     18 (8.6 %)      19 (25.3 %)
        20 (27.4 %)     21 (9.4 %)      22 (9.8 %)      23 (22.3 %)
        24 (15.0 %)     25 (37.1 %)     26 (19.1 %)     27 (9.3 %)
        28 (33.0 %)     29 (24.6 %)     30 (61.8 %)     31 (47.2 %)
        32 (26.1 %)     33 (23.6 %)     34 (10.4 %)     35 (17.4 %)
        36 (55.1 %)     37 (27.6 %)     38 (52.8 %)     39 (83.5 %)
        40 (19.0 %)     41 (33.8 %)     42 (24.6 %)     43 (22.9 %)
        44 (20.6 %)     45 (7.0 %)      46 (15.2 %)     47 (19.2 %)
        Total: 1403.7%
Initial condition solution time: CPU = 3.11 ms, elapsed = 3.11184 ms.
Intrinsic tran analysis time:    CPU = 509.261 ms, elapsed = 510.908 ms.
Total time required for tran analysis `tran': CPU = 514.635 ms, elapsed = 517.002 ms, util. = 99.5%.
Time accumulated: CPU = 29.9433 s, elapsed = 31.6796 s.
Peak resident memory used = 214 Mbytes.


Notice from spectre during transient analysis `tran', during Monte Carlo analysis `mc1'.
    34 warnings suppressed.

finalTimeOP: writing operating point information to rawfile.

Opening the PSF file ../psf/mc1_separate/050/finalTimeOP.info ...
modelParameter: writing model parameter values to rawfile.

Opening the PSF file ../psf/mc1_separate/050/modelParameter.info ...
element: writing instance parameter values to rawfile.

Opening the PSF file ../psf/mc1_separate/050/element.info ...
outputParameter: writing output parameter values to rawfile.

Opening the PSF file ../psf/mc1_separate/050/outputParameter.info ...
designParamVals: writing netlist parameters to rawfile.

Opening the PSFASCII file ../psf/mc1_separate/050/designParamVals.info ...
primitives: writing primitives to rawfile.

Opening the PSFASCII file ../psf/mc1_separate/050/primitives.info.primitives ...
subckts: writing subcircuits to rawfile.

Opening the PSFASCII file ../psf/mc1_separate/050/subckts.info.subckts ...
    mc1: iteration = 50           (100 %), step = 1            (2.04 %)
Total time required for montecarlo analysis `mc1': CPU = 29.4977 s, elapsed = 30.4407 s, util. = 96.9%.
Time accumulated: CPU = 29.9714 s, elapsed = 31.7216 s.
Peak resident memory used = 214 Mbytes.

Licensing Information:
Lic Summary:
[09:06:51.073176] Cdslmd servers:3000@lic08.ug.kth.se:29000@lic06.ug.kth.se
[09:06:51.597499] Feature usage summary:
[09:06:51.597504] Virtuoso_Multi_mode_Simulation


Aggregate audit (9:06:51 AM, Thur Apr 16, 2026):
Time used: CPU = 30 s, elapsed = 31.7 s, util. = 94.5%.
Time spent in licensing: elapsed = 27.6 ms.
Peak memory used = 214 Mbytes.
Simulation started at: 9:06:19 AM, Thur Apr 16, 2026, ended at: 9:06:51 AM, Thur Apr 16, 2026, with elapsed time (wall clock): 31.7 s.
spectre completes with 0 errors, 527 warnings, and 364 notices.
