
Spectre (R) Circuit Simulator
Version 24.1.0.288.isr5 64bit -- 3 Apr 2025
Copyright (C) 1989-2025 Cadence Design Systems, Inc. All rights reserved worldwide. Cadence and Spectre are registered trademarks of Cadence Design Systems, Inc. All others are the property of their respective holders.

Includes RSA BSAFE(R) Cryptographic or Security Protocol Software from RSA Security, Inc.

User: davidevi   Host: il2244vt26_davidevi   HostID: 11AC2C00   PID: 680723
Memory  available: 3.0600 TB  physical: 3.2467 TB
Linux   : Rocky Linux release 8.10 (Green Obsidian)
CPU Type: Intel(R) Xeon(R) CPU E7-8857 v2 @ 3.00GHz
        Socket: Processors [Frequency]
        0:       0 [2999.9],  1 [1200.0],  2 [1200.0],  3 [1200.0],  4 [2999.9]
                 5 [1200.0],  6 [1200.0],  7 [1200.0],  8 [1200.0],  9 [1200.0]
                10 [1200.0], 11 [1200.0]
        1:      12 [2700.0], 13 [1200.0], 14 [1200.0], 15 [1200.0], 16 [1200.0]
                17 [1200.0], 18 [1200.0], 19 [1671.6], 20 [1200.0], 21 [262.1]
                22 [1200.0], 23 [1200.0]
        2:      24 [2999.9], 25 [1200.0], 26 [2999.9], 27 [1200.0], 28 [1200.0]
                29 [1200.0], 30 [1200.0], 31 [1200.0], 32 [2999.9], 33 [1200.0]
                34 [1200.0], 35 [1200.0]
        3:      36 [1200.0], 37 [2999.9], 38 [1200.0], 39 [1200.0], 40 [2999.9]
                41 [2999.9], 42 [2986.4], 43 [1200.0], 44 [1200.0], 45 [1200.0]
                46 [2500.0], 47 [1200.0]
        
System load averages (1min, 5min, 15min) : 12.9 %, 11.9 %, 11.9 %
HPC is enabled


Simulating `input.scs' on il2244vt26_davidevi at 10:29:02 AM, Fri Apr 3, 2026 (process id: 680723).
Current working directory: /home/davidevi/Desktop/myproject/Sim/FECG/fecg_tb/adexl/results/data/Interactive.40/1/VIN/netlist
Command line:
    /opt/tools/cadence/installs/SPECTRE241/tools/bin/spectre -64  \
        input.scs +escchars +log ../psf/spectre.out -format psfbin  \
        +rtsf -raw ../psf ++aps +mt +lqtimeout 900 -maxw 5 -maxn 5  \
        +param /opt/pdk/ams/410/spectre/ams_range.lmts -env ade  \
        -ahdllibdir  \
        /home/davidevi/Desktop/myproject/Sim/FECG/fecg_tb/adexl/results/data/Interactive.40/sharedData/CDS/ahdl/input.ahdlSimDB  \
        +logstatus  \
        +adespetkn=0001089D13A302B663E41FB550AF0DF415A679A322D5069144BF588C12F604E07EF416DC01A319B562BB63D37FFF39B645A366AE36B52DE77CDE49CF4F894F926ECA79D15D9175FF34986BDD0AF002BA50FD7FD707E002A700AC1C8404FE5AE30EA979D118F874D3349879D118F874D33498101E8E94E2BF5D57000036FE

Simulation Id: MewyW9HFY4l0jLZR
Licensing Information:
[10:29:02.121714] Configured Lic search path (24.01-s002): 3000@lic08.ug.kth.se:29000@lic06.ug.kth.se

Licensing Information:
[10:29:02.358507] Periodic Lic check successful

Loading /opt/tools/cadence/installs/SPECTRE241/tools.lnx86/cmi/lib/64bit/5.0/libinfineon_sh.so ...
Loading /opt/tools/cadence/installs/SPECTRE241/tools.lnx86/cmi/lib/64bit/5.0/libphilips_I_sh.so ...
Loading /opt/tools/cadence/installs/SPECTRE241/tools.lnx86/cmi/lib/64bit/5.0/libphilips_sh.so ...
Loading /opt/tools/cadence/installs/SPECTRE241/tools.lnx86/cmi/lib/64bit/5.0/libsparam_sh.so ...
Loading /opt/tools/cadence/installs/SPECTRE241/tools.lnx86/cmi/lib/64bit/5.0/libstmodels_sh.so ...

Warning from spectre.
    WARNING (SPECTRE-691): This CPU processor does not support x86 advanced vector extensions instructions. This may affect math operations and slow down the simulation.

Reading file:  /home/davidevi/Desktop/myproject/Sim/FECG/fecg_tb/adexl/results/data/Interactive.40/1/VIN/netlist/input.scs
Reading file:  /opt/pdk/ams/410/spectre/ams_range.lmts

Warning from spectre during read of parameter soft limits file `/opt/pdk/ams/410/spectre/ams_range.lmts', during circuit read-in.
    WARNING (SPECTRE-8360): line 1511: `ac' is an undefined primitive device.
    WARNING (SPECTRE-8360): line 1512: `ac' is an undefined primitive device.
    WARNING (SPECTRE-8360): line 1513: `ac' is an undefined primitive device.
    WARNING (SPECTRE-8360): line 1514: `ac' is an undefined primitive device.
    WARNING (SPECTRE-8360): line 1515: `ac' is an undefined primitive device.
        Further occurrences of this warning will be suppressed.

Reading file:  /opt/tools/cadence/installs/SPECTRE241/tools.lnx86/spectre/etc/configs/spectre.cfg
Reading file:  /opt/pdk/ams/410/spectre/c35/soac/soac.scs
Reading file:  /opt/pdk/ams/410/spectre/c35/processOption.scs
Reading file:  /opt/pdk/ams/410/spectre/c35/process.scs
Reading file:  /opt/pdk/ams/410/spectre/c35/processOption/C35B4C3.scs
Reading file:  /opt/pdk/ams/410/spectre/c35/cmos53.scs
Reading file:  /opt/pdk/ams/410/spectre/c35/res.scs
Reading file:  /opt/pdk/ams/410/spectre/c35/cap.scs
Reading file:  /opt/pdk/ams/410/spectre/c35/bip.scs
Reading file:  /opt/pdk/ams/410/spectre/c35/ind.scs
Reading file:  /opt/pdk/ams/410/spectre/c35/esddiode.scs
Time for NDB Parsing: CPU = 168.709 ms, elapsed = 339.987 ms.
Time accumulated: CPU = 385.269 ms, elapsed = 339.995 ms.
Peak resident memory used = 173 Mbytes.

Reading link:  /opt/tools/cadence/installs/SPECTRE241/tools.lnx86/spectre/etc/ahdl/discipline.h
Reading file:  /opt/tools/cadence/installs/SPECTRE241/tools.lnx86/spectre/etc/ahdl/disciplines.vams
Reading link:  /opt/tools/cadence/installs/SPECTRE241/tools.lnx86/spectre/etc/ahdl/constants.h
Reading file:  /opt/tools/cadence/installs/SPECTRE241/tools.lnx86/spectre/etc/ahdl/constants.vams

Warning from spectre during AHDL read-in.
    WARNING (VACOMP-2435): The environment variable CDS_AHDLCMI_ENABLE is no longer supported. Therefore, the simulator will use the default compiled C code flow.

Created directory /home/davidevi/Desktop/myproject/Sim/FECG/fecg_tb/adexl/results/data/Interactive.40/sharedData/CDS/ahdl/input.ahdlSimDB/input.ahdlSimDB/ (775)
Created directory /home/davidevi/Desktop/myproject/Sim/FECG/fecg_tb/adexl/results/data/Interactive.40/sharedData/CDS/ahdl/input.ahdlSimDB/input.ahdlSimDB//bsource_19b458.va.bsource_19b458.ahdlcmi/ (775)
Reading link:  /home/davidevi/Desktop/myproject/Sim/ECG_IA/ecg_vga_tb/adexl/results/data/Interactive.188/sharedData/CDS/ahdl/input.ahdlSimDB/input.ahdlSimDB/bsource_19b458.va.bsource_19b458.ahdlcmi/Linux-64/obj/optimize/5.0/libahdlcmi_bsource_19b458.so
Reading file:  /home/davidevi/Desktop/myproject/Sim/ECG_IA/ecg_vga_tb/adexl/results/data/.tmpADEDir_davidevi/AHDL_sharedData/input.ahdlSimDB/input.ahdlSimDB/bsource_19b458.va.bsource_19b458.ahdlcmi/Linux-64/obj/optimize/5.0/libahdlcmi_bsource_19b458.so
Created directory /home/davidevi/Desktop/myproject/Sim/FECG/fecg_tb/adexl/results/data/Interactive.40/sharedData/CDS/ahdl/input.ahdlSimDB/input.ahdlSimDB//bsource_19b458.va.bsource_19b458.ahdlcmi/Linux-64/obj/optimize/5.0 
Copying files from directory /home/davidevi/Desktop/myproject/Sim/ECG_IA/ecg_vga_tb/adexl/results/data/Interactive.188/sharedData/CDS/ahdl/input.ahdlSimDB/input.ahdlSimDB/bsource_19b458.va.bsource_19b458.ahdlcmi/Linux-64/ to directory /home/davidevi/Desktop/myproject/Sim/FECG/fecg_tb/adexl/results/data/Interactive.40/sharedData/CDS/ahdl/input.ahdlSimDB/input.ahdlSimDB//bsource_19b458.va.bsource_19b458.ahdlcmi/Linux-64/
Finished copying files from /home/davidevi/Desktop/myproject/Sim/ECG_IA/ecg_vga_tb/adexl/results/data/Interactive.188/sharedData/CDS/ahdl/input.ahdlSimDB/input.ahdlSimDB/bsource_19b458.va.bsource_19b458.ahdlcmi/Linux-64/ to /home/davidevi/Desktop/myproject/Sim/FECG/fecg_tb/adexl/results/data/Interactive.40/sharedData/CDS/ahdl/input.ahdlSimDB/input.ahdlSimDB//bsource_19b458.va.bsource_19b458.ahdlcmi/Linux-64/.
The simulator has reused the existing Verilog-A libraries for this simulation run. If you do not want to use these libraries, set the 'CDS_AHDL_REUSE_LIB' environment variable to 'NO' and rerun the simulation.
Existing shared object for module bsource_19b458 is up to date.
Installed compiled interface for bsource_19b458.
Time for Elaboration: CPU = 174.216 ms, elapsed = 338.904 ms.
Time accumulated: CPU = 559.658 ms, elapsed = 679.072 ms.
Peak resident memory used = 192 Mbytes.


Notice from spectre during hierarchy flattening.
    The value 'psf' specified for the 'checklimitdest' option will no longer be supported in future releases. Use 'spectre -h' to see other recommended values for the 'checklimitdest' option.


*****************************************************************************************
* 
* INFO: AMS_processOption = C35B4C3
* 
* INFO: Valid Modules  PIP VG5 HIRES
* 
*****************************************************************************************



Warning from spectre during hierarchy flattening.
    WARNING (SPECTRE-8527): There are some nodes and instances removed from the netlist topology check. Check the circuit and correct the topology. Or use preserve_inst to keep them if necessary.

***********************************************
  Total removed instances 14 ( dangling 0, terminals connected together 14)  

Warning from spectre during hierarchy flattening.
    WARNING (SPECTRE-8528): The I12.C6<0>_turbo_m3.C1 device is removed because its terminals are connected together. Check the device in the netlist file to ensure that this warning can be ignored.
    WARNING (SPECTRE-8528): The I12.C9<0>_turbo_m6.C1 device is removed because its terminals are connected together. Check the device in the netlist file to ensure that this warning can be ignored.
    WARNING (SPECTRE-8528): The I12.C10<0>_turbo_m12.C1 device is removed because its terminals are connected together. Check the device in the netlist file to ensure that this warning can be ignored.
    WARNING (SPECTRE-8528): The I12.C7<0>_turbo_m3.C1 device is removed because its terminals are connected together. Check the device in the netlist file to ensure that this warning can be ignored.
    WARNING (SPECTRE-8528): The I8.C6<0>_turbo_m3.C1 device is removed because its terminals are connected together. Check the device in the netlist file to ensure that this warning can be ignored.
        Further occurrences of this warning will be suppressed.


  Total removed nodes 0 ( dangling nodes 0, floating nodes 0 )
***********************************************
Time for EDB Visiting: CPU = 18.025 ms, elapsed = 25.213 ms.
Time accumulated: CPU = 577.844 ms, elapsed = 704.445 ms.
Peak resident memory used = 195 Mbytes.


Warning from spectre during initial setup.
    WARNING (CMI-2425): I14.C1: `Acde' = 2.393 is unusually large.
    WARNING (CMI-2425): I14.C1: `Noff' = 4.732 is unusually large.
    WARNING (CMI-2424): I14.C1: `Voffcv' = -867.4e-03 is unusually small.

Loading /opt/tools/cadence/installs/SPECTRE241/tools.lnx86/mdl/lib/64bit/libSpectreEH_sh.so ...

Warning from spectre during initial setup.
    WARNING (SPECTRE-17607): Assert `SOAC_rpolyh_vminuspsub' is ignored because it contains an expression which is invalid or not supported by native evaluator. 
    WARNING (SPECTRE-17607): Assert `SOAC_rpolyh_vpluspsub' is ignored because it contains an expression which is invalid or not supported by native evaluator. 
    WARNING (SPECTRE-16460): SOAC_cvarm_vspsub:Specified subcircuit master `cvarm' was not found.
    WARNING (SPECTRE-16462): SOAC_cvarm_vspsub:Error in specification of subcircuit master. Assert is ignored.
    WARNING (SPECTRE-16460): SOAC_cvarm_vbs:Specified subcircuit master `cvarm' was not found.
    WARNING (SPECTRE-16462): SOAC_cvarm_vbs:Error in specification of subcircuit master. Assert is ignored.
    WARNING (SPECTRE-16460): SOAC_cvarm_vgb:Specified subcircuit master `cvarm' was not found.
    WARNING (SPECTRE-16462): SOAC_cvarm_vgb:Error in specification of subcircuit master. Assert is ignored.
    WARNING (SPECTRE-16460): SOAC_cvart_vspsub:Specified subcircuit master `cvart' was not found.
    WARNING (SPECTRE-16462): SOAC_cvart_vspsub:Error in specification of subcircuit master. Assert is ignored.
    WARNING (SPECTRE-16460): SOAC_cvart_vbs:Specified subcircuit master `cvart' was not found.
        Further occurrences of this warning will be suppressed.
    WARNING (SPECTRE-16462): SOAC_cvart_vbs:Error in specification of subcircuit master. Assert is ignored.
        Further occurrences of this warning will be suppressed.
    WARNING (SPECTRE-17607): Assert `SOAC_cvar_vspsub' is ignored because it contains an expression which is invalid or not supported by native evaluator. 
    WARNING (SPECTRE-17607): Assert `SOAC_cvar_vbpsub' is ignored because it contains an expression which is invalid or not supported by native evaluator. 
    WARNING (SPECTRE-17607): Assert `SOAC_cvar_vgpsub' is ignored because it contains an expression which is invalid or not supported by native evaluator. 
        Further occurrences of this warning will be suppressed.
Notice from spectre during initial setup.
    Multithreading is disabled due to the size of the design being too small.


Netlist title:
        // Point Netlist Generated on: Apr  3 10:29:01 2026


Global user options:
         psfversion = 1.4.0
            vabstol = 1e-06
            iabstol = 1e-12
               temp = 27
           homotopy = 5
              limit = delta
         compatible = spice2
               gmin = 1e-12
             rforce = 1
           maxnotes = 5
           maxwarns = 5
             digits = 5
               cols = 80
             pivrel = 0.001
           sensfile = ../psf/sens.output
     checklimitdest = psf
     enable_pre_ver = yes
      ignorezerovar = yes
               save = allpub
             reltol = 0.0001
               tnom = 27
             scalem = 1
              scale = 1

Scoped user options:

Circuit inventory:
              nodes 150
            bsim3v3 205   
     bsource_19b458 16    
          capacitor 250   
              diode 2     
           inductor 1     
            isource 6     
           resistor 6     
            vsource 12    

Analysis and control statement inventory:
                 dc 1     
               info 7     
                pac 1     
                pss 1     

Output statements:
             .probe 0     
           .measure 0     
               save 0     

Design checks inventory:
          paramtest 334   
             assert 175   


Notice from spectre during initial setup.
    3 vsources are shorted because their absolute value is less than or equal to 'vabsshort'.
    Fast APS enabled.
Warning from spectre during initial setup.
    WARNING (CMI-2425): I14.C1: `Acde' = 2.393 is unusually large.
    WARNING (CMI-2425): I14.C1: `Noff' = 4.732 is unusually large.
    WARNING (CMI-2424): I14.C1: `Voffcv' = -867.4e-03 is unusually small.
Notice from spectre.
    85 warnings suppressed.

Time for parsing: CPU = 51.337 ms, elapsed = 658.895 ms.
Time accumulated: CPU = 629.31 ms, elapsed = 1.36347 s.
Peak resident memory used = 203 Mbytes.

~~~~~~~~~~~~~~~~~~~~~~
Pre-Simulation Summary
~~~~~~~~~~~~~~~~~~~~~~
   -   (Fast APS) Multi-threading. The recommended number of threads is 1, consider adding +mt=1 on command line.
~~~~~~~~~~~~~~~~~~~~~~

******************
DC Analysis `dcOp'
******************

Notice from spectre during DC analysis `dcOp'.
    No checklimit analysis defined for asserts. A default checklimit analysis 'SpectreChecklimitAnal' has been created with all asserts enabled.


Opening the PSF file ../psf/dcOp.dc ...
Important parameter values:
    reltol = 100e-06
    abstol(V) = 1 uV
    abstol(I) = 1 pA
    temp = 27 C
    tnom = 27 C
    tempeffects = all
    gmindc = 1 pS
    rabsshort = 1 mOhm

Notice from spectre during DC analysis `dcOp'.
    GminDC = 1 pS is large enough to noticeably affect the DC solution.
        dV(I14.C1.d1) = 2.58851 mV
        Use the `gmin_check' option to eliminate or expand this report.
    Bad pivoting is found during DC analysis. Option dc_pivot_check=yes is recommended for possible improvement of convergence.


Maximum value achieved for any signal of each quantity: 
V: V(I14.C1.g1) = 3.3 V
I: I(V1:p) = 141.6 uA

Warning from spectre during check, during DC analysis `dcOp'.
    WARNING (CMI-2943): Parameter checks have been ignored because the valid value for parameter 'trise' could not be found in 'I14.C3.C1'.
    WARNING (CMI-2943): Parameter checks have been ignored because the valid value for parameter 'trise' could not be found in 'I14.C0<0>_turbo_m8.C1'.
    WARNING (CMI-2943): Parameter checks have been ignored because the valid value for parameter 'trise' could not be found in 'I14.R0.CM'.
    WARNING (CMI-2943): Parameter checks have been ignored because the valid value for parameter 'trise' could not be found in 'I14.R0.CS1'.
    WARNING (CMI-2943): Parameter checks have been ignored because the valid value for parameter 'trise' could not be found in 'I14.R0.CS0'.
        Further occurrences of this warning will be suppressed.

Convergence achieved in 45 iterations.
DC simulation time: CPU = 101.69 ms, elapsed = 114.956 ms.
Total time required for dc analysis `dcOp': CPU = 101.93 ms, elapsed = 115.181 ms, util. = 88.5%.
Time accumulated: CPU = 757.257 ms, elapsed = 1.50615 s.
Peak resident memory used = 210 Mbytes.


Notice from spectre.
    62 warnings suppressed.

dcOpInfo: writing operating point information to rawfile.

Opening the PSF file ../psf/dcOpInfo.info ...
Licensing Information:
[10:29:03.184635] Periodic Lic check successful


**************************************************
Periodic Steady-State Analysis `pss': fund = 50 Hz
**************************************************

Notice from spectre during IC analysis, during periodic steady state analysis `pss'.
    GminDC = 1 pS is large enough to noticeably affect the DC solution.
        dV(I14.C1.d1) = 2.58851 mV
        Use the `gmin_check' option to eliminate or expand this report.
    Bad pivoting is found during DC analysis. Option dc_pivot_check=yes is recommended for possible improvement of convergence.
Warning from spectre during check, during IC analysis, during periodic steady state analysis `pss'.
    WARNING (CMI-2943): Parameter checks have been ignored because the valid value for parameter 'trise' could not be found in 'I14.C3.C1'.
    WARNING (CMI-2943): Parameter checks have been ignored because the valid value for parameter 'trise' could not be found in 'I14.C0<0>_turbo_m8.C1'.
    WARNING (CMI-2943): Parameter checks have been ignored because the valid value for parameter 'trise' could not be found in 'I14.R0.CM'.
    WARNING (CMI-2943): Parameter checks have been ignored because the valid value for parameter 'trise' could not be found in 'I14.R0.CS1'.
    WARNING (CMI-2943): Parameter checks have been ignored because the valid value for parameter 'trise' could not be found in 'I14.R0.CS0'.
        Further occurrences of this warning will be suppressed.

Convergence achieved in 2 iterations.
DC simulation time: CPU = 1.792 ms, elapsed = 1.79291 ms.

==================================
pss `tstab': time = (0 s -> 20 ms)
==================================

Output and IC/nodeset summary:
                 save   10      (current)
                 save   149     (voltage)

Important parameter values in tstab integration:
    start = 0 s
    outputstart = 0 s
    stop = 20 ms
    period = 20 ms
    maxperiods = 20
    step = 20 us
    maxstep = 800 us
    ic = all
    useprevic = no
    skipdc = no
    reltol = 100e-06
    abstol(V) = 1 uV
    abstol(I) = 1 pA
    temp = 27 C
    tnom = 27 C
    tempeffects = all
    method = traponly
    lteratio = 3.5
    relref = sigglobal
    cmin = 0 F
    gmin = 1 pS
    rabsshort = 1 mOhm


Notice from spectre at time = 64.9191 us during periodic steady state analysis `pss'.
    Found trapezoidal ringing on node V0:p.
Notice from spectre at time = 79.7274 us during periodic steady state analysis `pss'.
    Found trapezoidal ringing on node V0:p.
Notice from spectre at time = 109.546 us during periodic steady state analysis `pss'.
    Found trapezoidal ringing on node V0:p.
Notice from spectre at time = 131.143 us during periodic steady state analysis `pss'.
    Found trapezoidal ringing on node V0:p.
Notice from spectre at time = 168.45 us during periodic steady state analysis `pss'.
    Found trapezoidal ringing on node V0:p.
        Further occurrences of this notice will be suppressed.

    pss: time = 500 us       (2.5 %), step = 14.79 us    (73.9 m%)
    pss: time = 1.5 ms       (7.5 %), step = 16 us         (80 m%)
    pss: time = 2.5 ms      (12.5 %), step = 14.27 us    (71.3 m%)
    pss: time = 3.5 ms      (17.5 %), step = 14.69 us    (73.4 m%)
    pss: time = 4.5 ms      (22.5 %), step = 14.98 us    (74.9 m%)
    pss: time = 5.5 ms      (27.5 %), step = 57.85 ps     (289 n%)
    pss: time = 6.5 ms      (32.5 %), step = 9.999 us      (50 m%)
    pss: time = 7.5 ms      (37.5 %), step = 14.56 us    (72.8 m%)
    pss: time = 8.5 ms      (42.5 %), step = 13.19 us      (66 m%)
    pss: time = 9.5 ms      (47.5 %), step = 12.36 us    (61.8 m%)
    pss: time = 10.5 ms     (52.5 %), step = 15.69 us    (78.4 m%)
    pss: time = 11.5 ms     (57.5 %), step = 16.48 us    (82.4 m%)
    pss: time = 12.5 ms     (62.5 %), step = 18.53 us    (92.7 m%)
    pss: time = 13.5 ms     (67.5 %), step = 16.17 us    (80.9 m%)
    pss: time = 14.5 ms     (72.5 %), step = 11.11 us    (55.6 m%)
    pss: time = 15.5 ms     (77.5 %), step = 17.98 us    (89.9 m%)
    pss: time = 16.5 ms     (82.5 %), step = 9.966 us    (49.8 m%)
    pss: time = 17.5 ms     (87.5 %), step = 19.78 us    (98.9 m%)
    pss: time = 18.5 ms     (92.5 %), step = 17.41 us    (87.1 m%)
    pss: time = 19.5 ms     (97.5 %), step = 14.27 us    (71.4 m%)
Total time required for tstab analysis `pss': CPU = 9.11399 s, elapsed = 9.11441 s.
Time accumulated: CPU = 9.89904 s, elapsed = 10.6661 s.
Peak resident memory used = 213 Mbytes.

Conv norm = 42.6e+03, max dV(VOUT) = -1.51005 V, took 9.11 s.

Important parameter values in pss iteration:
    start = 0 s
    outputstart = 0 s
    stop = 20 ms
    period = 20 ms
    maxperiods = 20
    steadyratio = 10e-03
    step = 20 us
    maxstep = 100 us
    ic = all
    useprevic = no
    skipdc = no
    reltol = 100e-06
    abstol(V) = 1 uV
    abstol(I) = 1 pA
    temp = 27 C
    tnom = 27 C
    tempeffects = all
    errpreset = conservative
    method = gear2only
    lteratio = 3.5
    relref = alllocal
    cmin = 0 F
    gmin = 1 pS
    rabsshort = 1 mOhm


Notice from spectre during periodic steady state analysis `pss'.
    62 warnings suppressed.


============================
`pss': time = (0 s -> 20 ms)
============================
    pss: time = 500 us       (2.5 %), step = 6.502 us    (32.5 m%)
    pss: time = 1.5 ms       (7.5 %), step = 7.115 us    (35.6 m%)
    pss: time = 2.5 ms      (12.5 %), step = 6.518 us    (32.6 m%)
    pss: time = 3.5 ms      (17.5 %), step = 11.15 us    (55.7 m%)
    pss: time = 4.5 ms      (22.5 %), step = 8.338 us    (41.7 m%)
    pss: time = 5.5 ms      (27.5 %), step = 34.47 ps     (172 n%)
    pss: time = 6.5 ms      (32.5 %), step = 2.847 us    (14.2 m%)
    pss: time = 7.5 ms      (37.5 %), step = 8.987 us    (44.9 m%)
    pss: time = 8.5 ms      (42.5 %), step = 7.129 us    (35.6 m%)
    pss: time = 9.5 ms      (47.5 %), step = 9.94 us     (49.7 m%)
    pss: time = 10.5 ms     (52.5 %), step = 10.07 us    (50.4 m%)
    pss: time = 11.5 ms     (57.5 %), step = 6.741 us    (33.7 m%)
    pss: time = 12.5 ms     (62.5 %), step = 8.76 us     (43.8 m%)
    pss: time = 13.5 ms     (67.5 %), step = 8.628 us    (43.1 m%)
    pss: time = 14.5 ms     (72.5 %), step = 10.27 us    (51.3 m%)
    pss: time = 15.5 ms     (77.5 %), step = 11.09 us    (55.5 m%)
    pss: time = 16.5 ms     (82.5 %), step = 10.03 us    (50.2 m%)
    pss: time = 17.5 ms     (87.5 %), step = 11.12 us    (55.6 m%)
    pss: time = 18.5 ms     (92.5 %), step = 6.613 us    (33.1 m%)
    pss: time = 19.5 ms     (97.5 %), step = 9.493 us    (47.5 m%)
Conv norm = 1.07e+03, max dV(VGA) = 33.1273 mV, took 18.04 s.


============================
`pss': time = (0 s -> 20 ms)
============================
    pss: time = 500 us       (2.5 %), step = 5.659 us    (28.3 m%)
    pss: time = 1.5 ms       (7.5 %), step = 9.537 us    (47.7 m%)
    pss: time = 2.5 ms      (12.5 %), step = 9.924 us    (49.6 m%)
    pss: time = 3.5 ms      (17.5 %), step = 2.847 us    (14.2 m%)
    pss: time = 4.5 ms      (22.5 %), step = 10.05 us    (50.3 m%)
    pss: time = 5.5 ms      (27.5 %), step = 34.47 ps     (172 n%)
    pss: time = 6.5 ms      (32.5 %), step = 797.8 ns    (3.99 m%)
    pss: time = 7.5 ms      (37.5 %), step = 10.1 us     (50.5 m%)
    pss: time = 8.5 ms      (42.5 %), step = 9.639 us    (48.2 m%)
    pss: time = 9.5 ms      (47.5 %), step = 11.24 us    (56.2 m%)
    pss: time = 10.5 ms     (52.5 %), step = 10.16 us    (50.8 m%)
    pss: time = 11.5 ms     (57.5 %), step = 9.038 us    (45.2 m%)
    pss: time = 12.5 ms     (62.5 %), step = 7.735 us    (38.7 m%)
    pss: time = 13.5 ms     (67.5 %), step = 10.14 us    (50.7 m%)
    pss: time = 14.5 ms     (72.5 %), step = 8.565 us    (42.8 m%)
    pss: time = 15.5 ms     (77.5 %), step = 9.046 us    (45.2 m%)
    pss: time = 16.5 ms     (82.5 %), step = 9.797 us      (49 m%)
    pss: time = 17.5 ms     (87.5 %), step = 10.27 us    (51.4 m%)
    pss: time = 18.5 ms     (92.5 %), step = 9.564 us    (47.8 m%)
    pss: time = 19.5 ms     (97.5 %), step = 7.923 us    (39.6 m%)
Conv norm = 1.21e+03, max dV(I11.net9) = 36.0462 mV, took 17.99 s.


============================
`pss': time = (0 s -> 20 ms)
============================
    pss: time = 500 us       (2.5 %), step = 8.543 us    (42.7 m%)
    pss: time = 1.5 ms       (7.5 %), step = 3.85 us     (19.3 m%)
    pss: time = 2.5 ms      (12.5 %), step = 9.924 us    (49.6 m%)
    pss: time = 3.5 ms      (17.5 %), step = 2.844 us    (14.2 m%)
    pss: time = 4.5 ms      (22.5 %), step = 10.05 us    (50.3 m%)
    pss: time = 5.5 ms      (27.5 %), step = 34.47 ps     (172 n%)
    pss: time = 6.5 ms      (32.5 %), step = 801.8 ns    (4.01 m%)
    pss: time = 7.5 ms      (37.5 %), step = 10.1 us     (50.5 m%)
    pss: time = 8.5 ms      (42.5 %), step = 9.639 us    (48.2 m%)
    pss: time = 9.5 ms      (47.5 %), step = 7.975 us    (39.9 m%)
    pss: time = 10.5 ms     (52.5 %), step = 10.24 us    (51.2 m%)
    pss: time = 11.5 ms     (57.5 %), step = 9.037 us    (45.2 m%)
    pss: time = 12.5 ms     (62.5 %), step = 7.735 us    (38.7 m%)
    pss: time = 13.5 ms     (67.5 %), step = 10.14 us    (50.7 m%)
    pss: time = 14.5 ms     (72.5 %), step = 8.549 us    (42.7 m%)
    pss: time = 15.5 ms     (77.5 %), step = 9.045 us    (45.2 m%)
    pss: time = 16.5 ms     (82.5 %), step = 9.796 us      (49 m%)
    pss: time = 17.5 ms     (87.5 %), step = 10.27 us    (51.4 m%)
    pss: time = 18.5 ms     (92.5 %), step = 9.564 us    (47.8 m%)
    pss: time = 19.5 ms     (97.5 %), step = 7.924 us    (39.6 m%)
Conv norm = 1.13e+03, max dV(VLF2) = 29.3807 mV, took 17.97 s.


============================
`pss': time = (0 s -> 20 ms)
============================
    pss: time = 500 us       (2.5 %), step = 8.543 us    (42.7 m%)
    pss: time = 1.5 ms       (7.5 %), step = 1.772 us    (8.86 m%)
    pss: time = 2.5 ms      (12.5 %), step = 9.924 us    (49.6 m%)
    pss: time = 3.5 ms      (17.5 %), step = 2.853 us    (14.3 m%)
    pss: time = 4.5 ms      (22.5 %), step = 10.05 us    (50.3 m%)
    pss: time = 5.5 ms      (27.5 %), step = 34.47 ps     (172 n%)
    pss: time = 6.5 ms      (32.5 %), step = 796.7 ns    (3.98 m%)
    pss: time = 7.5 ms      (37.5 %), step = 10.1 us     (50.5 m%)
    pss: time = 8.5 ms      (42.5 %), step = 9.639 us    (48.2 m%)
    pss: time = 9.5 ms      (47.5 %), step = 8.987 us    (44.9 m%)
    pss: time = 10.5 ms     (52.5 %), step = 7.999 us      (40 m%)
    pss: time = 11.5 ms     (57.5 %), step = 9.037 us    (45.2 m%)
    pss: time = 12.5 ms     (62.5 %), step = 7.735 us    (38.7 m%)
    pss: time = 13.5 ms     (67.5 %), step = 10.14 us    (50.7 m%)
    pss: time = 14.5 ms     (72.5 %), step = 8.569 us    (42.8 m%)
    pss: time = 15.5 ms     (77.5 %), step = 9.046 us    (45.2 m%)
    pss: time = 16.5 ms     (82.5 %), step = 9.797 us      (49 m%)
    pss: time = 17.5 ms     (87.5 %), step = 10.27 us    (51.4 m%)
    pss: time = 18.5 ms     (92.5 %), step = 9.564 us    (47.8 m%)
    pss: time = 19.5 ms     (97.5 %), step = 7.923 us    (39.6 m%)
Conv norm = 565, max dV(I11.net5) = 16.6835 mV, took 17.85 s.


============================
`pss': time = (0 s -> 20 ms)
============================
    pss: time = 500 us       (2.5 %), step = 8.004 us      (40 m%)
    pss: time = 1.5 ms       (7.5 %), step = 1.854 us    (9.27 m%)
    pss: time = 2.5 ms      (12.5 %), step = 9.896 us    (49.5 m%)
    pss: time = 3.5 ms      (17.5 %), step = 2.782 us    (13.9 m%)
    pss: time = 4.5 ms      (22.5 %), step = 9.943 us    (49.7 m%)
    pss: time = 5.5 ms      (27.5 %), step = 34.47 ps     (172 n%)
    pss: time = 6.5 ms      (32.5 %), step = 790.6 ns    (3.95 m%)
    pss: time = 7.5 ms      (37.5 %), step = 10.01 us    (50.1 m%)
    pss: time = 8.5 ms      (42.5 %), step = 9.657 us    (48.3 m%)
    pss: time = 9.5 ms      (47.5 %), step = 9.591 us      (48 m%)
    pss: time = 10.5 ms     (52.5 %), step = 6.277 us    (31.4 m%)
    pss: time = 11.5 ms     (57.5 %), step = 9.065 us    (45.3 m%)
    pss: time = 12.5 ms     (62.5 %), step = 11.73 us    (58.6 m%)
    pss: time = 13.5 ms     (67.5 %), step = 8.533 us    (42.7 m%)
    pss: time = 14.5 ms     (72.5 %), step = 10.19 us    (50.9 m%)
    pss: time = 15.5 ms     (77.5 %), step = 9.13 us     (45.7 m%)
    pss: time = 16.5 ms     (82.5 %), step = 9.782 us    (48.9 m%)
    pss: time = 17.5 ms     (87.5 %), step = 7.547 us    (37.7 m%)
    pss: time = 18.5 ms     (92.5 %), step = 7.888 us    (39.4 m%)
    pss: time = 19.5 ms     (97.5 %), step = 7.779 us    (38.9 m%)
Conv norm = 1.57, max dV(VGA) = -40.4098 uV, took 21.43 s.


============================
`pss': time = (0 s -> 20 ms)
============================
    pss: time = 500 us       (2.5 %), step = 8.004 us      (40 m%)
    pss: time = 1.5 ms       (7.5 %), step = 1.854 us    (9.27 m%)
    pss: time = 2.5 ms      (12.5 %), step = 9.896 us    (49.5 m%)
    pss: time = 3.5 ms      (17.5 %), step = 2.782 us    (13.9 m%)
    pss: time = 4.5 ms      (22.5 %), step = 9.943 us    (49.7 m%)
    pss: time = 5.5 ms      (27.5 %), step = 34.47 ps     (172 n%)
    pss: time = 6.5 ms      (32.5 %), step = 790.6 ns    (3.95 m%)
    pss: time = 7.5 ms      (37.5 %), step = 10.01 us    (50.1 m%)
    pss: time = 8.5 ms      (42.5 %), step = 9.657 us    (48.3 m%)
    pss: time = 9.5 ms      (47.5 %), step = 10.01 us    (50.1 m%)
    pss: time = 10.5 ms     (52.5 %), step = 12.42 us    (62.1 m%)
    pss: time = 11.5 ms     (57.5 %), step = 9.065 us    (45.3 m%)
    pss: time = 12.5 ms     (62.5 %), step = 11.73 us    (58.6 m%)
    pss: time = 13.5 ms     (67.5 %), step = 8.533 us    (42.7 m%)
    pss: time = 14.5 ms     (72.5 %), step = 10.19 us    (50.9 m%)
    pss: time = 15.5 ms     (77.5 %), step = 9.13 us     (45.6 m%)
    pss: time = 16.5 ms     (82.5 %), step = 9.781 us    (48.9 m%)
    pss: time = 17.5 ms     (87.5 %), step = 7.547 us    (37.7 m%)
    pss: time = 18.5 ms     (92.5 %), step = 7.888 us    (39.4 m%)
    pss: time = 19.5 ms     (97.5 %), step = 7.779 us    (38.9 m%)
Conv norm = 401e-03, max dV(VGA) = -10.3112 uV, took 20.79 s.


Opening the PSF file ../psf/pss.td.pss ...

Opening the PSF file ../psf/pss.fd.pss ...

============================
`pss': time = (0 s -> 20 ms)
============================
    pss: time = 500 us       (2.5 %), step = 6.779 us    (33.9 m%)
    pss: time = 1.5 ms       (7.5 %), step = 2.58 us     (12.9 m%)
    pss: time = 2.5 ms      (12.5 %), step = 7.347 us    (36.7 m%)
    pss: time = 3.5 ms      (17.5 %), step = 6.564 us    (32.8 m%)
    pss: time = 4.5 ms      (22.5 %), step = 10.63 us    (53.1 m%)
    pss: time = 5.5 ms      (27.5 %), step = 57.85 ps     (289 n%)
    pss: time = 6.5 ms      (32.5 %), step = 868.9 ns    (4.34 m%)
    pss: time = 7.5 ms      (37.5 %), step = 9.197 us      (46 m%)
    pss: time = 8.5 ms      (42.5 %), step = 9.408 us      (47 m%)
    pss: time = 9.5 ms      (47.5 %), step = 9.178 us    (45.9 m%)
    pss: time = 10.5 ms     (52.5 %), step = 9.599 us      (48 m%)
    pss: time = 11.5 ms     (57.5 %), step = 9.05 us     (45.3 m%)
    pss: time = 12.5 ms     (62.5 %), step = 9.211 us    (46.1 m%)
    pss: time = 13.5 ms     (67.5 %), step = 8.869 us    (44.3 m%)
    pss: time = 14.5 ms     (72.5 %), step = 9.415 us    (47.1 m%)
    pss: time = 15.5 ms     (77.5 %), step = 8.334 us    (41.7 m%)
    pss: time = 16.5 ms     (82.5 %), step = 8.431 us    (42.2 m%)
    pss: time = 17.5 ms     (87.5 %), step = 8.826 us    (44.1 m%)
    pss: time = 18.5 ms     (92.5 %), step = 9.901 us    (49.5 m%)
    pss: time = 19.5 ms     (97.5 %), step = 9.26 us     (46.3 m%)

Notice from spectre during periodic steady state analysis `pss'.
    Trapezoidal ringing is detected during pss analysis.
        Please use method=trap for better results and performance.


Maximum value achieved for any signal of each quantity: 
V: V(I2.I14.clkn) = 3.408 V
I: I(V0:p) = 1.455 mA
Initial condition solution time: CPU = 1.837 ms, elapsed = 1.83916 ms.
pss: The steady-state solution was achieved in 7 iterations.
Number of accepted pss steps =             14691
Total time required for pss analysis `pss': CPU = 145.76 s (2m  25.8s), elapsed = 145.788 s (2m  25.8s), util. = 100%.
Time accumulated: CPU = 146.586 s (2m  26.6s), elapsed = 147.369 s (2m  27.4s).
Peak resident memory used = 484 Mbytes.


Notice from spectre.
    781 notices suppressed.


******************************************************
Periodic AC Analysis `pac': freq = (10 mHz -> 100 kHz)
******************************************************

Opening the PSF file ../psf/pac.pac ...

Opening the PSF file ../psf/pac.0.pac ...
Using the operating-point information generated by PSS analysis `pss'.

Warning from spectre during PAC analysis `pac'.
    WARNING (SPCRTRF-15027): Sweep truncated: 10 mHz -> 19.9526 kHz.
        Set `maxacfreq' on PSS analysis `pss' to 100 kHz.

    pac: freq = 19.05 mHz   (4.44 %), step = 5.251 mHz    (2.22 %)
    pac: freq = 26.3 mHz    (6.67 %), step = 7.248 mHz    (2.22 %)
    pac: freq = 36.31 mHz   (8.89 %), step = 10.01 mHz    (2.22 %)
    pac: freq = 50.12 mHz   (11.1 %), step = 13.81 mHz    (2.22 %)
    pac: freq = 69.18 mHz   (13.3 %), step = 19.06 mHz    (2.22 %)
    pac: freq = 95.5 mHz    (15.6 %), step = 26.32 mHz    (2.22 %)
    pac: freq = 131.8 mHz   (17.8 %), step = 36.33 mHz    (2.22 %)
    pac: freq = 182 mHz       (20 %), step = 50.14 mHz    (2.22 %)
    pac: freq = 251.2 mHz   (22.2 %), step = 69.22 mHz    (2.22 %)
    pac: freq = 346.7 mHz   (24.4 %), step = 95.55 mHz    (2.22 %)
    pac: freq = 478.6 mHz   (26.7 %), step = 131.9 mHz    (2.22 %)
    pac: freq = 660.7 mHz   (28.9 %), step = 182.1 mHz    (2.22 %)
    pac: freq = 912 mHz     (31.1 %), step = 251.3 mHz    (2.22 %)
    pac: freq = 1.259 Hz    (33.3 %), step = 346.9 mHz    (2.22 %)
    pac: freq = 1.738 Hz    (35.6 %), step = 478.9 mHz    (2.22 %)
    pac: freq = 2.399 Hz    (37.8 %), step = 661 mHz      (2.22 %)
    pac: freq = 3.311 Hz      (40 %), step = 912.5 mHz    (2.22 %)
    pac: freq = 4.571 Hz    (42.2 %), step = 1.26 Hz      (2.22 %)
    pac: freq = 6.31 Hz     (44.4 %), step = 1.739 Hz     (2.22 %)
    pac: freq = 8.71 Hz     (46.7 %), step = 2.4 Hz       (2.22 %)
    pac: freq = 12.02 Hz    (48.9 %), step = 3.313 Hz     (2.22 %)
    pac: freq = 16.6 Hz     (51.1 %), step = 4.573 Hz     (2.22 %)
    pac: freq = 22.91 Hz    (53.3 %), step = 6.313 Hz     (2.22 %)
    pac: freq = 31.62 Hz    (55.6 %), step = 8.714 Hz     (2.22 %)
    pac: freq = 43.65 Hz    (57.8 %), step = 12.03 Hz     (2.22 %)
    pac: freq = 60.26 Hz      (60 %), step = 16.6 Hz      (2.22 %)
    pac: freq = 83.18 Hz    (62.2 %), step = 22.92 Hz     (2.22 %)
    pac: freq = 114.8 Hz    (64.4 %), step = 31.64 Hz     (2.22 %)
    pac: freq = 158.5 Hz    (66.7 %), step = 43.67 Hz     (2.22 %)
    pac: freq = 218.8 Hz    (68.9 %), step = 60.29 Hz     (2.22 %)
    pac: freq = 302 Hz      (71.1 %), step = 83.22 Hz     (2.22 %)
    pac: freq = 416.9 Hz    (73.3 %), step = 114.9 Hz     (2.22 %)
    pac: freq = 575.4 Hz    (75.6 %), step = 158.6 Hz     (2.22 %)
    pac: freq = 794.3 Hz    (77.8 %), step = 218.9 Hz     (2.22 %)
    pac: freq = 1.096 kHz     (80 %), step = 302.1 Hz     (2.22 %)
    pac: freq = 1.514 kHz   (82.2 %), step = 417.1 Hz     (2.22 %)
    pac: freq = 2.089 kHz   (84.4 %), step = 575.7 Hz     (2.22 %)
    pac: freq = 2.884 kHz   (86.7 %), step = 794.7 Hz     (2.22 %)
    pac: freq = 3.981 kHz   (88.9 %), step = 1.097 kHz    (2.22 %)
    pac: freq = 5.495 kHz   (91.1 %), step = 1.514 kHz    (2.22 %)
    pac: freq = 7.586 kHz   (93.3 %), step = 2.09 kHz     (2.22 %)
    pac: freq = 10.47 kHz   (95.6 %), step = 2.886 kHz    (2.22 %)
    pac: freq = 14.45 kHz   (97.8 %), step = 3.983 kHz    (2.22 %)
    pac: freq = 19.95 kHz    (100 %), step = 5.498 kHz    (2.22 %)
Total time required for pac analysis `pac': CPU = 24.422 s, elapsed = 24.4248 s, util. = 100%.
Time accumulated: CPU = 171.012 s (2m  51.0s), elapsed = 171.799 s (2m  51.8s).
Peak resident memory used = 526 Mbytes.

modelParameter: writing model parameter values to rawfile.

Opening the PSF file ../psf/modelParameter.info ...
element: writing instance parameter values to rawfile.

Opening the PSF file ../psf/element.info ...
outputParameter: writing output parameter values to rawfile.

Opening the PSF file ../psf/outputParameter.info ...
designParamVals: writing netlist parameters to rawfile.

Opening the PSFASCII file ../psf/designParamVals.info ...
primitives: writing primitives to rawfile.

Opening the PSFASCII file ../psf/primitives.info.primitives ...
subckts: writing subcircuits to rawfile.

Opening the PSFASCII file ../psf/subckts.info.subckts ...
Licensing Information:
Lic Summary:
[10:31:54.046009] Cdslmd servers:3000@lic08.ug.kth.se:29000@lic06.ug.kth.se
[10:31:54.046058] Feature usage summary:
[10:31:54.046059] Virtuoso_Multi_mode_Simulation


Aggregate audit (10:31:54 AM, Fri Apr 3, 2026):
Time used: CPU = 171 s (2m  51.1s), elapsed = 172 s (2m  51.9s), util. = 99.5%.
Time spent in licensing: elapsed = 63.5 ms.
Peak memory used = 527 Mbytes.
Simulation started at: 10:29:02 AM, Fri Apr 3, 2026, ended at: 10:31:54 AM, Fri Apr 3, 2026, with elapsed time (wall clock): 172 s (2m  51.9s).
spectre completes with 0 errors, 45 warnings, and 20 notices.
