
Spectre (R) Circuit Simulator
Version 24.1.0.288.isr5 64bit -- 3 Apr 2025
Copyright (C) 1989-2025 Cadence Design Systems, Inc. All rights reserved worldwide. Cadence and Spectre are registered trademarks of Cadence Design Systems, Inc. All others are the property of their respective holders.

Includes RSA BSAFE(R) Cryptographic or Security Protocol Software from RSA Security, Inc.

User: davidevi   Host: il2244vt26_davidevi   HostID: 11AC2C00   PID: 472637
Memory  available: 3.0735 TB  physical: 3.2467 TB
Linux   : Rocky Linux release 8.10 (Green Obsidian)
CPU Type: Intel(R) Xeon(R) CPU E7-8857 v2 @ 3.00GHz
        Socket: Processors [Frequency]
        0:       0 [2300.0],  1 [2600.0],  2 [2999.9],  3 [3600.0],  4 [2999.9]
                 5 [2999.9],  6 [1400.0],  7 [3600.0],  8 [3600.0],  9 [2994.2]
                10 [3600.0], 11 [2600.0]
        1:      12 [1200.0], 13 [3398.5], 14 [3600.0], 15 [1500.0], 16 [3600.0]
                17 [3397.8], 18 [3397.8], 19 [3397.8], 20 [1200.0], 21 [1200.0]
                22 [1500.0], 23 [3397.9]
        2:      24 [1200.0], 25 [2500.0], 26 [2900.0], 27 [3491.0], 28 [1200.0]
                29 [1200.0], 30 [1200.0], 31 [1200.0], 32 [1200.0], 33 [1200.0]
                34 [2700.0], 35 [3441.0]
        3:      36 [2900.0], 37 [3500.0], 38 [3416.3], 39 [1200.0], 40 [1200.0]
                41 [3416.6], 42 [1200.0], 43 [3600.0], 44 [1200.0], 45 [3600.0]
                46 [3393.4], 47 [1200.0]
        
System load averages (1min, 5min, 15min) : 20.8 %, 15.9 %, 14.4 %
HPC is enabled


Simulating `input.scs' on il2244vt26_davidevi at 5:46:37 PM, Mon Mar 16, 2026 (process id: 472637).
Current working directory: /home/davidevi/Desktop/myproject/Sim/CHARACTERIZATION/GM_ID_PMOS/adexl/results/data/Ocean.4/33/CHARACTERIZATION:GM_ID_PMOS:1/netlist
Command line:
    /opt/tools/cadence/installs/SPECTRE241/tools/bin/spectre -64  \
        input.scs +escchars +log ../psf/spectre.out -format psfbin  \
        +rtsf -raw ../psf +aps +mt +lqtimeout 900 -maxw 5 -maxn 5  \
        +param /opt/pdk/ams/410/spectre/ams_range.lmts -env ade  \
        -ahdllibdir  \
        /home/davidevi/Desktop/myproject/Sim/CHARACTERIZATION/GM_ID_PMOS/adexl/results/data/Ocean.4/sharedData/Job12/ahdl/input.ahdlSimDB  \
        +logstatus  \
        +adespetkn=0001089D13A302B663E41FB550AF0DF415A679A322D5069144BF588C12F604E07EF416DC01A319B562BB63D350AE16E745A37DD730FE389A51E819D36ACD4F920CF979D15D9175FF34986BDD0AF002BA50FD7FD707E002A700AC1C8112FE4CE30EAC79D129F874D3349879D118F874D3349810695905352E5D2000003676

Simulation Id: b4dOavepLIItXc8a
Licensing Information:
[17:46:38.121834] Configured Lic search path (24.01-s002): 3000@lic08.ug.kth.se:29000@lic06.ug.kth.se

Licensing Information:
[17:46:38.168986] Periodic Lic check successful

Loading /opt/tools/cadence/installs/SPECTRE241/tools.lnx86/cmi/lib/64bit/5.0/libinfineon_sh.so ...
Loading /opt/tools/cadence/installs/SPECTRE241/tools.lnx86/cmi/lib/64bit/5.0/libphilips_I_sh.so ...
Loading /opt/tools/cadence/installs/SPECTRE241/tools.lnx86/cmi/lib/64bit/5.0/libphilips_sh.so ...
Loading /opt/tools/cadence/installs/SPECTRE241/tools.lnx86/cmi/lib/64bit/5.0/libsparam_sh.so ...
Loading /opt/tools/cadence/installs/SPECTRE241/tools.lnx86/cmi/lib/64bit/5.0/libstmodels_sh.so ...

Warning from spectre.
    WARNING (SPECTRE-691): This CPU processor does not support x86 advanced vector extensions instructions. This may affect math operations and slow down the simulation.

Reading file:  /home/davidevi/Desktop/myproject/Sim/CHARACTERIZATION/GM_ID_PMOS/adexl/results/data/Ocean.4/33/CHARACTERIZATION:GM_ID_PMOS:1/netlist/input.scs
Reading file:  /opt/pdk/ams/410/spectre/ams_range.lmts

Warning from spectre during read of parameter soft limits file `/opt/pdk/ams/410/spectre/ams_range.lmts', during circuit read-in.
    WARNING (SPECTRE-8360): line 1511: `ac' is an undefined primitive device.
    WARNING (SPECTRE-8360): line 1512: `ac' is an undefined primitive device.
    WARNING (SPECTRE-8360): line 1513: `ac' is an undefined primitive device.
    WARNING (SPECTRE-8360): line 1514: `ac' is an undefined primitive device.
    WARNING (SPECTRE-8360): line 1515: `ac' is an undefined primitive device.
        Further occurrences of this warning will be suppressed.

Reading file:  /opt/tools/cadence/installs/SPECTRE241/tools.lnx86/spectre/etc/configs/spectre.cfg
Reading file:  /opt/pdk/ams/410/spectre/c35/soac/soac.scs
Reading file:  /opt/pdk/ams/410/spectre/c35/soac/processOption.scs
Reading file:  /opt/pdk/ams/410/spectre/c35/soac/process.scs
Reading file:  /opt/pdk/ams/410/spectre/c35/soac/soac.va

Warning from spectre during AHDL read-in.
    WARNING (VACOMP-2435): The environment variable CDS_AHDLCMI_ENABLE is no longer supported. Therefore, the simulator will use the default compiled C code flow.

Reading link:  /opt/tools/cadence/installs/SPECTRE241/tools.lnx86/spectre/etc/ahdl/constants.h
Reading file:  /opt/tools/cadence/installs/SPECTRE241/tools.lnx86/spectre/etc/ahdl/constants.vams
Reading link:  /opt/tools/cadence/installs/SPECTRE241/tools.lnx86/spectre/etc/ahdl/discipline.h
Reading file:  /opt/tools/cadence/installs/SPECTRE241/tools.lnx86/spectre/etc/ahdl/disciplines.vams
Reading file:  /opt/pdk/ams/410/spectre/c35/processOption/C35B4C3.scs
Reading file:  /opt/pdk/ams/410/spectre/c35/soac/cmos53.scs
Reading file:  /opt/pdk/ams/410/spectre/c35/soac/res.scs
Reading file:  /opt/pdk/ams/410/spectre/c35/soac/cap.scs
Reading file:  /opt/pdk/ams/410/spectre/c35/soac/bip.scs
Reading file:  /opt/pdk/ams/410/spectre/c35/soac/ind.scs
Reading file:  /opt/pdk/ams/410/spectre/c35/soac/esddiode.scs
Time for NDB Parsing: CPU = 144.611 ms, elapsed = 381.136 ms.
Time accumulated: CPU = 323.881 ms, elapsed = 381.138 ms.
Peak resident memory used = 175 Mbytes.

Existing shared object for module modp_ahdl is up to date.
Installed compiled interface for modp_ahdl.
Time for Elaboration: CPU = 25.933 ms, elapsed = 26.438 ms.
Time accumulated: CPU = 349.941 ms, elapsed = 407.702 ms.
Peak resident memory used = 185 Mbytes.


Notice from spectre during hierarchy flattening.
    The value 'psf' specified for the 'checklimitdest' option will no longer be supported in future releases. Use 'spectre -h' to see other recommended values for the 'checklimitdest' option.


*****************************************************************************************
* 
* INFO: AMS_processOption = C35B4C3
* 
* INFO: Valid Modules  PIP VG5 HIRES
* 
*****************************************************************************************


Time for EDB Visiting: CPU = 2.566 ms, elapsed = 2.56586 ms.
Time accumulated: CPU = 352.635 ms, elapsed = 410.396 ms.
Peak resident memory used = 187 Mbytes.

Loading /opt/tools/cadence/installs/SPECTRE241/tools.lnx86/mdl/lib/64bit/libSpectreEH_sh.so ...

Warning from spectre during initial setup.
    WARNING (SPECTRE-16460): SOAC_cvarm_vspsub:Specified subcircuit master `cvarm' was not found.
    WARNING (SPECTRE-16462): SOAC_cvarm_vspsub:Error in specification of subcircuit master. Assert is ignored.
    WARNING (SPECTRE-16460): SOAC_cvarm_vbs:Specified subcircuit master `cvarm' was not found.
    WARNING (SPECTRE-16462): SOAC_cvarm_vbs:Error in specification of subcircuit master. Assert is ignored.
    WARNING (SPECTRE-16460): SOAC_cvarm_vgb:Specified subcircuit master `cvarm' was not found.
    WARNING (SPECTRE-16462): SOAC_cvarm_vgb:Error in specification of subcircuit master. Assert is ignored.
    WARNING (SPECTRE-16460): SOAC_cvart_vspsub:Specified subcircuit master `cvart' was not found.
    WARNING (SPECTRE-16462): SOAC_cvart_vspsub:Error in specification of subcircuit master. Assert is ignored.
    WARNING (SPECTRE-16460): SOAC_cvart_vbs:Specified subcircuit master `cvart' was not found.
        Further occurrences of this warning will be suppressed.
    WARNING (SPECTRE-16462): SOAC_cvart_vbs:Error in specification of subcircuit master. Assert is ignored.
        Further occurrences of this warning will be suppressed.
Notice from spectre during topology check.
    Only one connection to the following 2 nodes:
        0
        MP0.psub!
Notice from spectre during initial setup.
    Multithreading is disabled due to the size of the design being too small.


Netlist title:
        // Generated for: spectre


Global user options:
         psfversion = 1.4.0
            vabstol = 1e-06
            iabstol = 1e-12
               temp = 27
           homotopy = 5
              limit = delta
         compatible = spice2
               gmin = 1e-12
             rforce = 1
           maxnotes = 5
           maxwarns = 5
             digits = 5
               cols = 80
             pivrel = 0.001
           sensfile = ../psf/sens.output
     checklimitdest = psf
     enable_pre_ver = yes
      ignorezerovar = yes
               save = allpub
             reltol = 0.0001
               tnom = 27
             scalem = 1
              scale = 1

Scoped user options:

Circuit inventory:
              nodes 5
            bsim3v3 1     
            isource 1     
          modp_ahdl 1     
               vcvs 1     
            vsource 2     

Analysis and control statement inventory:
                 dc 1     
               info 7     

Output statements:
             .probe 0     
           .measure 0     
               save 0     

Design checks inventory:
          paramtest 2     
             assert 175   


Notice from spectre during initial setup.
    APS enabled.
    72 warnings suppressed.

Time for parsing: CPU = 10.426 ms, elapsed = 530.172 ms.
Time accumulated: CPU = 363.174 ms, elapsed = 940.681 ms.
Peak resident memory used = 193 Mbytes.

~~~~~~~~~~~~~~~~~~~~~~
Pre-Simulation Summary
~~~~~~~~~~~~~~~~~~~~~~
   -   (APS) Multi-threading. The recommended number of threads is 1, consider adding +mt=1 on command line.
~~~~~~~~~~~~~~~~~~~~~~

******************
DC Analysis `dcOp'
******************

Notice from spectre during DC analysis `dcOp'.
    No checklimit analysis defined for asserts. A default checklimit analysis 'SpectreChecklimitAnal' has been created with all asserts enabled.


Opening the PSF file ../psf/dcOp.dc ...
Important parameter values:
    reltol = 100e-06
    abstol(V) = 1 uV
    abstol(I) = 1 pA
    temp = 27 C
    tnom = 27 C
    tempeffects = all
    gmindc = 1 pS
    rabsshort = 1 mOhm
Trying `homotopy = gmin'.
Homotopy: gmin, steps: 42

Maximum value achieved for any signal of each quantity: 
V: V(net3) = 3.3 V
I: I(V2:p) = 11.12 aA
Maximum value of each quantity, excluding Verilog-A modules or dangling current sources:
V: V(net4) = 1.8 V
I: I(V2:p) = 11.12 aA
Convergence achieved in 344 iterations.
DC simulation time: CPU = 76.436 ms, elapsed = 79.4151 ms.
Total time required for dc analysis `dcOp': CPU = 76.53 ms, elapsed = 79.5021 ms, util. = 96.3%.
Time accumulated: CPU = 460.457 ms, elapsed = 1.04152 s.
Peak resident memory used = 202 Mbytes.

dcOpInfo: writing operating point information to rawfile.

Opening the PSF file ../psf/dcOpInfo.info ...
modelParameter: writing model parameter values to rawfile.

Opening the PSF file ../psf/modelParameter.info ...
element: writing instance parameter values to rawfile.

Opening the PSF file ../psf/element.info ...
outputParameter: writing output parameter values to rawfile.

Opening the PSF file ../psf/outputParameter.info ...
designParamVals: writing netlist parameters to rawfile.

Opening the PSFASCII file ../psf/designParamVals.info ...
primitives: writing primitives to rawfile.

Opening the PSFASCII file ../psf/primitives.info.primitives ...
subckts: writing subcircuits to rawfile.

Opening the PSFASCII file ../psf/subckts.info.subckts ...
Licensing Information:
Lic Summary:
[17:46:38.452890] Cdslmd servers:3000@lic08.ug.kth.se:29000@lic06.ug.kth.se
[17:46:38.977211] Feature usage summary:
[17:46:38.977216] Virtuoso_Multi_mode_Simulation


Aggregate audit (5:46:38 PM, Mon Mar 16, 2026):
Time used: CPU = 480 ms, elapsed = 1.07 s, util. = 44.9%.
Time spent in licensing: elapsed = 262 ms, percentage of total = 24.5%.
Peak memory used = 203 Mbytes.
Simulation started at: 5:46:37 PM, Mon Mar 16, 2026, ended at: 5:46:38 PM, Mon Mar 16, 2026, with elapsed time (wall clock): 1.07 s.
spectre completes with 0 errors, 17 warnings, and 7 notices.
