
Spectre (R) Circuit Simulator
Version 24.1.0.288.isr5 64bit -- 3 Apr 2025
Copyright (C) 1989-2025 Cadence Design Systems, Inc. All rights reserved worldwide. Cadence and Spectre are registered trademarks of Cadence Design Systems, Inc. All others are the property of their respective holders.

Includes RSA BSAFE(R) Cryptographic or Security Protocol Software from RSA Security, Inc.

User: davidevi   Host: il2244vt26_davidevi   HostID: 11AC2C00   PID: 1053497
Memory  available: 3.0389 TB  physical: 3.2467 TB
Linux   : Rocky Linux release 8.10 (Green Obsidian)
CPU Type: Intel(R) Xeon(R) CPU E7-8857 v2 @ 3.00GHz
        Socket: Processors [Frequency]
        0:       0 [3600.0],  1 [2999.9],  2 [1200.0],  3 [2999.9],  4 [1200.0]
                 5 [3600.0],  6 [1200.0],  7 [2700.0],  8 [1200.0],  9 [3000.0]
                10 [2999.9], 11 [1200.0]
        1:      12 [3600.0], 13 [2999.9], 14 [3300.0], 15 [3600.0], 16 [3400.0]
                17 [2999.9], 18 [2400.0], 19 [3600.0], 20 [1200.0], 21 [2999.9]
                22 [1200.0], 23 [1200.0]
        2:      24 [3420.7], 25 [3600.0], 26 [3600.0], 27 [2500.0], 28 [1200.0]
                29 [3300.0], 30 [2600.0], 31 [3420.1], 32 [1200.0], 33 [1200.0]
                34 [1200.0], 35 [3600.0]
        3:      36 [1200.0], 37 [1200.0], 38 [2999.9], 39 [2999.9], 40 [1200.0]
                41 [1200.0], 42 [2700.0], 43 [2999.9], 44 [1200.0], 45 [2999.9]
                46 [1200.0], 47 [1200.0]
        
System load averages (1min, 5min, 15min) : 27.9 %, 23.0 %, 18.5 %
HPC is enabled


Simulating `input.scs' on il2244vt26_davidevi at 9:10:25 AM, Thur Apr 16, 2026 (process id: 1053497).
Current working directory: /home/davidevi/Desktop/myproject/Sim/VGA/VGA_1_tb/adexl/results/data/MonteCarlo.3/18/Linerity_MC/groupRunDataDir/netlist
Command line:
    /opt/tools/cadence/installs/SPECTRE241/tools/bin/spectre -64  \
        input.scs +escchars +log ../psf/spectre.out -format psfbin  \
        +rtsf -raw ../psf +aps +mt +lqtimeout 900 -maxw 5 -maxn 5  \
        +param /opt/pdk/ams/410/spectre/ams_range.lmts -env ade  \
        -ahdllibdir  \
        /home/davidevi/Desktop/myproject/Sim/VGA/VGA_1_tb/adexl/results/data/MonteCarlo.3/sharedData/Job474/ahdl/input.ahdlSimDB  \
        +logstatus  \
        +adespetkn=0001089D13A302B663E41FB550AF0DF415A679A322D5069144BF588C12F604E07EF416DC01A319B562BB63D37DDC3B9545A308F125FA1F9B77EB1EF471F14F9203D679D15D9175FF34986BDD0AF002BA50FD7FD707E002A700AC1C8119F747EA0EAC79D12DF874D3349879D118F874D334981031BF78D3535D780000369C

Simulation Id: OFVJ2SCskHRHPk7N
Licensing Information:
[09:10:25.121738] Configured Lic search path (24.01-s002): 3000@lic08.ug.kth.se:29000@lic06.ug.kth.se

Licensing Information:
[09:10:25.136787] Periodic Lic check successful

Loading /opt/tools/cadence/installs/SPECTRE241/tools.lnx86/cmi/lib/64bit/5.0/libinfineon_sh.so ...
Loading /opt/tools/cadence/installs/SPECTRE241/tools.lnx86/cmi/lib/64bit/5.0/libphilips_I_sh.so ...
Loading /opt/tools/cadence/installs/SPECTRE241/tools.lnx86/cmi/lib/64bit/5.0/libphilips_sh.so ...
Loading /opt/tools/cadence/installs/SPECTRE241/tools.lnx86/cmi/lib/64bit/5.0/libsparam_sh.so ...
Loading /opt/tools/cadence/installs/SPECTRE241/tools.lnx86/cmi/lib/64bit/5.0/libstmodels_sh.so ...

Warning from spectre.
    WARNING (SPECTRE-691): This CPU processor does not support x86 advanced vector extensions instructions. This may affect math operations and slow down the simulation.

Reading file:  /home/davidevi/Desktop/myproject/Sim/VGA/VGA_1_tb/adexl/results/data/MonteCarlo.3/18/Linerity_MC/groupRunDataDir/netlist/input.scs
Reading file:  /opt/pdk/ams/410/spectre/ams_range.lmts

Warning from spectre during read of parameter soft limits file `/opt/pdk/ams/410/spectre/ams_range.lmts', during circuit read-in.
    WARNING (SPECTRE-8360): line 1511: `ac' is an undefined primitive device.
    WARNING (SPECTRE-8360): line 1512: `ac' is an undefined primitive device.
    WARNING (SPECTRE-8360): line 1513: `ac' is an undefined primitive device.
    WARNING (SPECTRE-8360): line 1514: `ac' is an undefined primitive device.
    WARNING (SPECTRE-8360): line 1515: `ac' is an undefined primitive device.
        Further occurrences of this warning will be suppressed.

Reading file:  /opt/tools/cadence/installs/SPECTRE241/tools.lnx86/spectre/etc/configs/spectre.cfg
Reading file:  /opt/pdk/ams/410/spectre/c35/soac/soac.scs
Reading file:  /opt/pdk/ams/410/spectre/c35/soac/processOption.scs
Reading file:  /opt/pdk/ams/410/spectre/c35/soac/process.scs
Reading file:  /opt/pdk/ams/410/spectre/c35/soac/soac.va

Warning from spectre during AHDL read-in.
    WARNING (VACOMP-2435): The environment variable CDS_AHDLCMI_ENABLE is no longer supported. Therefore, the simulator will use the default compiled C code flow.

Reading link:  /opt/tools/cadence/installs/SPECTRE241/tools.lnx86/spectre/etc/ahdl/constants.h
Reading file:  /opt/tools/cadence/installs/SPECTRE241/tools.lnx86/spectre/etc/ahdl/constants.vams
Reading link:  /opt/tools/cadence/installs/SPECTRE241/tools.lnx86/spectre/etc/ahdl/discipline.h
Reading file:  /opt/tools/cadence/installs/SPECTRE241/tools.lnx86/spectre/etc/ahdl/disciplines.vams
Reading file:  /opt/pdk/ams/410/spectre/c35/processOption/C35B4C3.scs
Reading file:  /opt/pdk/ams/410/spectre/c35/soac/cmos53.scs
Reading file:  /opt/pdk/ams/410/spectre/c35/soac/res.scs
Reading file:  /opt/pdk/ams/410/spectre/c35/soac/cap.scs
Reading file:  /opt/pdk/ams/410/spectre/c35/soac/bip.scs
Reading file:  /opt/pdk/ams/410/spectre/c35/soac/ind.scs
Reading file:  /opt/pdk/ams/410/spectre/c35/soac/esddiode.scs
Time for NDB Parsing: CPU = 177.073 ms, elapsed = 354.487 ms.
Time accumulated: CPU = 372.366 ms, elapsed = 354.49 ms.
Peak resident memory used = 175 Mbytes.

Existing shared object for module modn_ahdl is up to date.
Installed compiled interface for modn_ahdl.
Existing shared object for module modp_ahdl is up to date.
Installed compiled interface for modp_ahdl.
Existing shared object for module cpoly_ahdl is up to date.
Installed compiled interface for cpoly_ahdl.
Existing shared object for module rpolyh_ahdl is up to date.
Installed compiled interface for rpolyh_ahdl.
Existing shared object for module bsource_19b458 is up to date.
Installed compiled interface for bsource_19b458.
Time for Elaboration: CPU = 60.866 ms, elapsed = 64.3229 ms.
Time accumulated: CPU = 433.361 ms, elapsed = 418.941 ms.
Peak resident memory used = 188 Mbytes.


Notice from spectre during hierarchy flattening.
    The value 'psf' specified for the 'checklimitdest' option will no longer be supported in future releases. Use 'spectre -h' to see other recommended values for the 'checklimitdest' option.


*****************************************************************************************
* 
* INFO: AMS_processOption = C35B4C3
* 
* INFO: Valid Modules  PIP VG5 HIRES
* 
*****************************************************************************************


Time for EDB Visiting: CPU = 8.956 ms, elapsed = 8.991 ms.
Time accumulated: CPU = 442.555 ms, elapsed = 428.168 ms.
Peak resident memory used = 191 Mbytes.

Loading /opt/tools/cadence/installs/SPECTRE241/tools.lnx86/mdl/lib/64bit/libSpectreEH_sh.so ...

Warning from spectre during initial setup.
    WARNING (SPECTRE-16460): SOAC_cvarm_vspsub:Specified subcircuit master `cvarm' was not found.
    WARNING (SPECTRE-16462): SOAC_cvarm_vspsub:Error in specification of subcircuit master. Assert is ignored.
    WARNING (SPECTRE-16460): SOAC_cvarm_vbs:Specified subcircuit master `cvarm' was not found.
    WARNING (SPECTRE-16462): SOAC_cvarm_vbs:Error in specification of subcircuit master. Assert is ignored.
    WARNING (SPECTRE-16460): SOAC_cvarm_vgb:Specified subcircuit master `cvarm' was not found.
    WARNING (SPECTRE-16462): SOAC_cvarm_vgb:Error in specification of subcircuit master. Assert is ignored.
    WARNING (SPECTRE-16460): SOAC_cvart_vspsub:Specified subcircuit master `cvart' was not found.
    WARNING (SPECTRE-16462): SOAC_cvart_vspsub:Error in specification of subcircuit master. Assert is ignored.
    WARNING (SPECTRE-16460): SOAC_cvart_vbs:Specified subcircuit master `cvart' was not found.
        Further occurrences of this warning will be suppressed.
    WARNING (SPECTRE-16462): SOAC_cvart_vbs:Error in specification of subcircuit master. Assert is ignored.
        Further occurrences of this warning will be suppressed.
Notice from spectre during topology check.
    Only one connection to the following 54 nodes:
        I0.MN6.psub!
        I0.MN5.psub!
        I0.MN4.psub!
        I0.MN3.psub!
        I0.MN2.psub!
        Further occurrences of this notice will be suppressed.
Notice from spectre during initial setup.
    Multithreading is disabled due to the size of the design being too small.


Netlist title:
        // Point Netlist Generated on: Apr 16 09:10:24 2026


Global user options:
         psfversion = 1.4.0
            vabstol = 1e-06
            iabstol = 1e-12
               temp = -40
           homotopy = 5
              limit = delta
         compatible = spice2
               gmin = 1e-12
             rforce = 1
           maxnotes = 5
           maxwarns = 5
             digits = 5
               cols = 80
             pivrel = 0.001
           sensfile = ../psf/sens.output
     checklimitdest = psf
     enable_pre_ver = yes
      ignorezerovar = yes
               save = allpub
             reltol = 0.0001
               tnom = 27
             scalem = 1
              scale = 1

Scoped user options:

Circuit inventory:
              nodes 88
            bsim3v3 35    
     bsource_19b458 2     
          capacitor 38    
         cpoly_ahdl 17    
            isource 1     
          modn_ahdl 19    
          modp_ahdl 16    
           resistor 1     
        rpolyh_ahdl 2     
            vsource 8     

Analysis and control statement inventory:
                 dc 1     
               info 8     
         montecarlo 1     
               tran 1     

Output statements:
             .probe 0     
           .measure 0     
               save 0     

Design checks inventory:
          paramtest 55    
             assert 175   


Notice from spectre during initial setup.
    APS enabled.
    1 notice suppressed.
    72 warnings suppressed.

Time for parsing: CPU = 19.048 ms, elapsed = 633.238 ms.
Time accumulated: CPU = 461.713 ms, elapsed = 1.06152 s.
Peak resident memory used = 198 Mbytes.

~~~~~~~~~~~~~~~~~~~~~~
Pre-Simulation Summary
~~~~~~~~~~~~~~~~~~~~~~
   -   (APS) Multi-threading. The recommended number of threads is 1, consider adding +mt=1 on command line.
~~~~~~~~~~~~~~~~~~~~~~

*************************************************
Monte Carlo Analysis `mc1': iteration = (1 -> 50)
*************************************************
Important parameter values:
    seed = 12345
    sampling = lds
    variations = all
    firstrun = 1
    numruns = 50
    nullmfactorcorrelation = no
    donominal = yes
    method = standard

**** Performing nominal run for `mc1'

******************
DC Analysis `dcOp'
******************

Notice from spectre during DC analysis `dcOp', during Monte Carlo analysis `mc1'.
    No checklimit analysis defined for asserts. A default checklimit analysis 'SpectreChecklimitAnal' has been created with all asserts enabled.


Opening the PSF file ../psf/nom/dcOp.dc ...
Important parameter values:
    reltol = 100e-06
    abstol(V) = 1 uV
    abstol(I) = 1 pA
    temp = -40 C
    tnom = 27 C
    tempeffects = all
    gmindc = 1 pS
    rabsshort = 1 mOhm

Notice from spectre during DC analysis `dcOp', during Monte Carlo analysis `mc1'.
    GminDC = 1 pS is large enough to noticeably affect the DC solution.
        dV(vout) = -224 uV
        Use the `gmin_check' option to eliminate or expand this report.
    Bad pivoting is found during DC analysis. Option dc_pivot_check=yes is recommended for possible improvement of convergence.


Maximum value achieved for any signal of each quantity: 
V: V(S<0>) = 3.3 V
I: I(V0:p) = 6.453 uA
Maximum value of each quantity, excluding Verilog-A modules or dangling current sources:
V: V(vout_filt) = 1.6 V
I: I(V0:p) = 6.453 uA

Warning from spectre during check, during DC analysis `dcOp', during Monte Carlo analysis `mc1'.
    WARNING (CMI-2943): Parameter checks have been ignored because the valid value for parameter 'trise' could not be found in 'C1'.
    WARNING (CMI-2943): Parameter checks have been ignored because the valid value for parameter 'trise' could not be found in 'I0.R2.CM'.
    WARNING (CMI-2943): Parameter checks have been ignored because the valid value for parameter 'trise' could not be found in 'I0.R2.CS1'.
    WARNING (CMI-2943): Parameter checks have been ignored because the valid value for parameter 'trise' could not be found in 'I0.R2.CS0'.
    WARNING (CMI-2943): Parameter checks have been ignored because the valid value for parameter 'trise' could not be found in 'I0.C8<3>.C1'.
        Further occurrences of this warning will be suppressed.

Convergence achieved in 21 iterations.
DC simulation time: CPU = 87.575 ms, elapsed = 92.191 ms.
Total time required for dc analysis `dcOp': CPU = 87.68 ms, elapsed = 92.2942 ms, util. = 95%.
Time accumulated: CPU = 573.783 ms, elapsed = 1.17934 s.
Peak resident memory used = 207 Mbytes.


Notice from spectre during Monte Carlo analysis `mc1'.
    34 warnings suppressed.

dcOpInfo: writing operating point information to rawfile.

Opening the PSF file ../psf/nom/dcOpInfo.info ...

************************************************
Transient Analysis `tran': time = (0 s -> 40 ms)
************************************************

Notice from spectre during IC analysis, during transient analysis `tran', during Monte Carlo analysis `mc1'.
    GminDC = 1 pS is large enough to noticeably affect the DC solution.
        dV(vout) = -224 uV
        Use the `gmin_check' option to eliminate or expand this report.
    Bad pivoting is found during DC analysis. Option dc_pivot_check=yes is recommended for possible improvement of convergence.
Warning from spectre during check, during IC analysis, during transient analysis `tran', during Monte Carlo analysis `mc1'.
    WARNING (CMI-2943): Parameter checks have been ignored because the valid value for parameter 'trise' could not be found in 'C1'.
    WARNING (CMI-2943): Parameter checks have been ignored because the valid value for parameter 'trise' could not be found in 'I0.R2.CM'.
    WARNING (CMI-2943): Parameter checks have been ignored because the valid value for parameter 'trise' could not be found in 'I0.R2.CS1'.
    WARNING (CMI-2943): Parameter checks have been ignored because the valid value for parameter 'trise' could not be found in 'I0.R2.CS0'.
    WARNING (CMI-2943): Parameter checks have been ignored because the valid value for parameter 'trise' could not be found in 'I0.C8<3>.C1'.
        Further occurrences of this warning will be suppressed.

Convergence achieved in 2 iterations.
DC simulation time: CPU = 1.233 ms, elapsed = 1.23382 ms.

Opening the PSF file ../psf/nom/tran.tran.tran ...
Important parameter values:
    start = 0 s
    outputstart = 0 s
    stop = 40 ms
    step = 40 us
    maxstep = 400 us
    ic = all
    useprevic = no
    skipdc = no
    reltol = 10e-06
    abstol(V) = 1 uV
    abstol(I) = 1 pA
    temp = -40 C
    tnom = 27 C
    tempeffects = all
    errpreset = conservative
    method = gear2only
    lteratio = 10
    relref = alllocal
    cmin = 0 F
    gmin = 1 pS
    rabsshort = 1 mOhm


Notice from spectre during transient analysis `tran', during Monte Carlo analysis `mc1'.
    Multithreading is disabled due to the size of the design being too small.


Output and IC/nodeset summary:
                 save   8       (current)
                 save   87      (voltage)

    tran: time = 1.021 ms    (2.55 %), step = 48.39 us     (121 m%)
    tran: time = 3.035 ms    (7.59 %), step = 47.36 us     (118 m%)
    tran: time = 5.002 ms    (12.5 %), step = 50 us        (125 m%)
    tran: time = 7.016 ms    (17.5 %), step = 48.9 us      (122 m%)
    tran: time = 9.029 ms    (22.6 %), step = 47.77 us     (119 m%)
    tran: time = 11.04 ms    (27.6 %), step = 46.88 us     (117 m%)
    tran: time = 13.01 ms    (32.5 %), step = 49.45 us     (124 m%)
    tran: time = 15.02 ms    (37.6 %), step = 48.24 us     (121 m%)
    tran: time = 17.04 ms    (42.6 %), step = 47.24 us     (118 m%)
    tran: time = 19 ms       (47.5 %), step = 50 us        (125 m%)
    tran: time = 21.02 ms    (52.5 %), step = 48.74 us     (122 m%)
    tran: time = 23.03 ms    (57.6 %), step = 47.63 us     (119 m%)
    tran: time = 25.04 ms    (62.6 %), step = 46.78 us     (117 m%)
    tran: time = 27.01 ms    (67.5 %), step = 49.27 us     (123 m%)
    tran: time = 29.03 ms    (72.6 %), step = 48.09 us     (120 m%)
    tran: time = 31.04 ms    (77.6 %), step = 47.12 us     (118 m%)
    tran: time = 33.01 ms    (82.5 %), step = 49.88 us     (125 m%)
    tran: time = 35.02 ms    (87.5 %), step = 48.58 us     (121 m%)
    tran: time = 37.03 ms    (92.6 %), step = 47.51 us     (119 m%)
    tran: time = 39.05 ms    (97.6 %), step = 46.68 us     (117 m%)
Number of accepted tran steps =             851

Maximum value achieved for any signal of each quantity: 
V: V(S<0>) = 3.3 V
I: I(V0:p) = 6.454 uA
Maximum value of each quantity, excluding Verilog-A modules or dangling current sources:
V: V(vout_filt) = 1.614 V
I: I(V0:p) = 6.454 uA

~~~~~~~~~~~~~~~~~~~~~~~~~~~~~~~~~
Post-Transient Simulation Summary
~~~~~~~~~~~~~~~~~~~~~~~~~~~~~~~~~
   -   To further speed up simulation, consider
          add ++aps on command line
   -   Non-default settings that could significantly slow down simulation
          errpreset = conservative, default moderate
          reltol = 10e-06, default 100e-06 (conservative)
~~~~~~~~~~~~~~~~~~~~~~~~~~~~~~~~~


During simulation, the CPU load for active processors is :
         0 (26.5 %)      1 (73.6 %)      2 (14.2 %)      3 (100.0 %)
         4 (3.7 %)       5 (1.9 %)       6 (3.0 %)       7 (14.9 %)
         8 (2.5 %)       9 (1.8 %)      10 (99.4 %)     11 (18.9 %)
        12 (19.9 %)     13 (44.8 %)     14 (28.2 %)     15 (8.5 %)
        16 (3.7 %)      17 (100.0 %)    18 (1.8 %)      19 (3.0 %)
        20 (4.3 %)      21 (5.6 %)      22 (2.4 %)      23 (7.9 %)
        24 (91.0 %)     25 (7.3 %)      26 (12.7 %)     27 (7.3 %)
        28 (3.7 %)      29 (1.2 %)      30 (1.2 %)      31 (100.0 %)
        32 (2.5 %)      33 (4.9 %)      34 (2.4 %)      35 (4.3 %)
        36 (8.0 %)      37 (15.9 %)     38 (91.6 %)     39 (43.3 %)
        40 (8.5 %)      41 (1.9 %)      42 (1.9 %)      43 (100.0 %)
        44 (2.5 %)      45 (60.0 %)     46 (4.9 %)      47 (2.5 %)
        Total: 1170.1%
Initial condition solution time: CPU = 1.269 ms, elapsed = 1.27101 ms.
Intrinsic tran analysis time:    CPU = 517.652 ms, elapsed = 526.164 ms.
Total time required for tran analysis `tran': CPU = 521.124 ms, elapsed = 530.4 ms, util. = 98.3%.
Time accumulated: CPU = 1.10378 s, elapsed = 1.72181 s.
Peak resident memory used = 210 Mbytes.


Notice from spectre during transient analysis `tran', during Monte Carlo analysis `mc1'.
    34 warnings suppressed.

finalTimeOP: writing operating point information to rawfile.

Opening the PSF file ../psf/nom/finalTimeOP.info ...
modelParameter: writing model parameter values to rawfile.

Opening the PSF file ../psf/nom/modelParameter.info ...
element: writing instance parameter values to rawfile.

Opening the PSF file ../psf/nom/element.info ...
outputParameter: writing output parameter values to rawfile.

Opening the PSF file ../psf/nom/outputParameter.info ...
designParamVals: writing netlist parameters to rawfile.

Opening the PSFASCII file ../psf/nom/designParamVals.info ...
primitives: writing primitives to rawfile.

Opening the PSFASCII file ../psf/nom/primitives.info.primitives ...
subckts: writing subcircuits to rawfile.

Opening the PSFASCII file ../psf/nom/subckts.info.subckts ...
Opening iteration number and data-directory mapping file:  /home/davidevi/Desktop/myproject/Sim/VGA/VGA_1_tb/adexl/results/data/MonteCarlo.3/18/Linerity_MC/groupRunDataDir/netlist/../psf/mc1.mapping

Statistical parameters:
    Defined process parameters: 629
    Defined mismatch parameters (subckt based): 86
    Non-referenced mismatch parameters: 80
    Number of random variables: 718
    Gaussian truncation for process parameters: 4.00 sigma
    Gaussian truncation for mismatch parameters: 4.00 sigma


Opening the PSF file ../psf/mc1_dcOp.montecarlo ...

Opening the PSF file ../psf/mc1_dcOpInfo.montecarlo ...

Opening the PSF file ../psf/mc1_tran.montecarlo ...

Opening the PSF file ../psf/mc1_finalTimeOP.montecarlo ...

Opening the PSF file ../psf/mc1_modelParameter.montecarlo ...

Opening the PSF file ../psf/mc1_element.montecarlo ...

Opening the PSF file ../psf/mc1_outputParameter.montecarlo ...

Opening the PSF file ../psf/mc1_designParamVals.montecarlo ...

Opening the PSF file ../psf/mc1_primitives.montecarlo ...

Opening the PSF file ../psf/mc1_subckts.montecarlo ...

**** Performing monte carlo loop for `mc1'

1   0.00% 

*****************************************************************************************
* 
* INFO: AMS_processOption = C35B4C3
* 
* INFO: Valid Modules  PIP VG5 HIRES
* 
*****************************************************************************************


******************
DC Analysis `dcOp'
******************

Opening the PSF file ../psf/mc1_separate/001/dcOp.dc ...
Important parameter values:
    reltol = 100e-06
    abstol(V) = 1 uV
    abstol(I) = 1 pA
    temp = -40 C
    tnom = 27 C
    tempeffects = all
    gmindc = 1 pS
    rabsshort = 1 mOhm

Notice from spectre at iteration = 1 during DC analysis `dcOp', during Monte Carlo analysis `mc1'.
    GminDC = 1 pS is large enough to noticeably affect the DC solution.
        dV(vout) = -224.005 uV
        Use the `gmin_check' option to eliminate or expand this report.
    Bad pivoting is found during DC analysis. Option dc_pivot_check=yes is recommended for possible improvement of convergence.


Maximum value achieved for any signal of each quantity: 
V: V(S<0>) = 3.3 V
I: I(V0:p) = 6.194 uA
Maximum value of each quantity, excluding Verilog-A modules or dangling current sources:
V: V(vout_filt) = 1.6 V
I: I(V0:p) = 6.194 uA

Warning from spectre at iteration = 1 during check, during DC analysis `dcOp', during Monte Carlo analysis `mc1'.
    WARNING (CMI-2943): Parameter checks have been ignored because the valid value for parameter 'trise' could not be found in 'C1'.
    WARNING (CMI-2943): Parameter checks have been ignored because the valid value for parameter 'trise' could not be found in 'I0.R2.CM'.
    WARNING (CMI-2943): Parameter checks have been ignored because the valid value for parameter 'trise' could not be found in 'I0.R2.CS1'.
    WARNING (CMI-2943): Parameter checks have been ignored because the valid value for parameter 'trise' could not be found in 'I0.R2.CS0'.
    WARNING (CMI-2943): Parameter checks have been ignored because the valid value for parameter 'trise' could not be found in 'I0.C8<3>.C1'.
        Further occurrences of this warning will be suppressed.

Convergence achieved in 19 iterations.
DC simulation time: CPU = 5.702 ms, elapsed = 6.94108 ms.
Total time required for dc analysis `dcOp': CPU = 6.212 ms, elapsed = 7.4501 ms, util. = 83.4%.
Time accumulated: CPU = 1.18728 s, elapsed = 1.82101 s.
Peak resident memory used = 212 Mbytes.


Notice from spectre at iteration = 1 during Monte Carlo analysis `mc1'.
    34 warnings suppressed.

dcOpInfo: writing operating point information to rawfile.

Opening the PSF file ../psf/mc1_separate/001/dcOpInfo.info ...

************************************************
Transient Analysis `tran': time = (0 s -> 40 ms)
************************************************

Opening the PSF file ../psf/mc1_separate/001/tran.tran.tran ...

Notice from spectre at iteration = 1 during IC analysis, during transient analysis `tran', during Monte Carlo analysis `mc1'.
    GminDC = 1 pS is large enough to noticeably affect the DC solution.
        dV(vout) = -224.005 uV
        Use the `gmin_check' option to eliminate or expand this report.
    Bad pivoting is found during DC analysis. Option dc_pivot_check=yes is recommended for possible improvement of convergence.
Warning from spectre at iteration = 1 during check, during IC analysis, during transient analysis `tran', during Monte Carlo analysis `mc1'.
    WARNING (CMI-2943): Parameter checks have been ignored because the valid value for parameter 'trise' could not be found in 'C1'.
    WARNING (CMI-2943): Parameter checks have been ignored because the valid value for parameter 'trise' could not be found in 'I0.R2.CM'.
    WARNING (CMI-2943): Parameter checks have been ignored because the valid value for parameter 'trise' could not be found in 'I0.R2.CS1'.
    WARNING (CMI-2943): Parameter checks have been ignored because the valid value for parameter 'trise' could not be found in 'I0.R2.CS0'.
    WARNING (CMI-2943): Parameter checks have been ignored because the valid value for parameter 'trise' could not be found in 'I0.C8<3>.C1'.
        Further occurrences of this warning will be suppressed.

Convergence achieved in 19 iterations.
DC simulation time: CPU = 2.954 ms, elapsed = 2.95401 ms.
Important parameter values:
    start = 0 s
    outputstart = 0 s
    stop = 40 ms
    step = 40 us
    maxstep = 400 us
    ic = all
    useprevic = no
    skipdc = no
    reltol = 10e-06
    abstol(V) = 1 uV
    abstol(I) = 1 pA
    temp = -40 C
    tnom = 27 C
    tempeffects = all
    errpreset = conservative
    method = gear2only
    lteratio = 10
    relref = alllocal
    cmin = 0 F
    gmin = 1 pS
    rabsshort = 1 mOhm


Notice from spectre at iteration = 1 during transient analysis `tran', during Monte Carlo analysis `mc1'.
    Multithreading is disabled due to the size of the design being too small.


Output and IC/nodeset summary:
                 save   8       (current)
                 save   87      (voltage)

    tran: time = 1.02 ms     (2.55 %), step = 48.48 us     (121 m%)
    tran: time = 3.034 ms    (7.59 %), step = 47.43 us     (119 m%)
    tran: time = 5.001 ms    (12.5 %), step = 50 us        (125 m%)
    tran: time = 7.015 ms    (17.5 %), step = 49 us        (122 m%)
    tran: time = 9.028 ms    (22.6 %), step = 47.84 us     (120 m%)
    tran: time = 11.04 ms    (27.6 %), step = 46.94 us     (117 m%)
    tran: time = 13.01 ms    (32.5 %), step = 49.54 us     (124 m%)
    tran: time = 15.02 ms    (37.6 %), step = 48.31 us     (121 m%)
    tran: time = 17.04 ms    (42.6 %), step = 47.29 us     (118 m%)
    tran: time = 19 ms       (47.5 %), step = 50 us        (125 m%)
    tran: time = 21.02 ms    (52.5 %), step = 48.81 us     (122 m%)
    tran: time = 23.03 ms    (57.6 %), step = 47.69 us     (119 m%)
    tran: time = 25.04 ms    (62.6 %), step = 46.82 us     (117 m%)
    tran: time = 27.01 ms    (67.5 %), step = 49.34 us     (123 m%)
    tran: time = 29.02 ms    (72.6 %), step = 48.14 us     (120 m%)
    tran: time = 31.04 ms    (77.6 %), step = 47.16 us     (118 m%)
    tran: time = 33.01 ms    (82.5 %), step = 49.93 us     (125 m%)
    tran: time = 35.02 ms    (87.5 %), step = 48.63 us     (122 m%)
    tran: time = 37.03 ms    (92.6 %), step = 47.54 us     (119 m%)
    tran: time = 39.05 ms    (97.6 %), step = 46.71 us     (117 m%)
Number of accepted tran steps =             851

Maximum value achieved for any signal of each quantity: 
V: V(S<0>) = 3.3 V
I: I(V0:p) = 6.194 uA
Maximum value of each quantity, excluding Verilog-A modules or dangling current sources:
V: V(vout_filt) = 1.614 V
I: I(V0:p) = 6.194 uA

~~~~~~~~~~~~~~~~~~~~~~~~~~~~~~~~~
Post-Transient Simulation Summary
~~~~~~~~~~~~~~~~~~~~~~~~~~~~~~~~~
   -   To further speed up simulation, consider
          add ++aps on command line
   -   Non-default settings that could significantly slow down simulation
          errpreset = conservative, default moderate
          reltol = 10e-06, default 100e-06 (conservative)
~~~~~~~~~~~~~~~~~~~~~~~~~~~~~~~~~


During simulation, the CPU load for active processors is :
         0 (45.5 %)      1 (54.9 %)      2 (16.4 %)      3 (100.0 %)
         4 (3.6 %)       5 (3.1 %)       6 (3.5 %)       7 (10.8 %)
         8 (3.1 %)       9 (21.8 %)     10 (99.6 %)     11 (19.7 %)
        12 (38.9 %)     13 (33.8 %)     14 (20.9 %)     15 (6.6 %)
        16 (4.4 %)      17 (100.0 %)    18 (2.7 %)      19 (2.7 %)
        20 (4.0 %)      21 (8.0 %)      22 (2.7 %)      23 (10.5 %)
        24 (92.2 %)     25 (6.1 %)      26 (9.7 %)      27 (18.7 %)
        28 (3.9 %)      30 (1.3 %)      31 (100.0 %)    32 (2.2 %)
        33 (4.0 %)      34 (3.1 %)      35 (17.0 %)     36 (6.2 %)
        37 (12.8 %)     38 (93.5 %)     39 (31.9 %)     40 (7.1 %)
        41 (1.8 %)      42 (1.8 %)      43 (100.0 %)    44 (2.2 %)
        45 (45.1 %)     46 (3.6 %)      47 (2.7 %)      
        Total: 1184.9%
Initial condition solution time: CPU = 2.985 ms, elapsed = 2.98715 ms.
Intrinsic tran analysis time:    CPU = 512.044 ms, elapsed = 519.468 ms.
Total time required for tran analysis `tran': CPU = 516.881 ms, elapsed = 524.843 ms, util. = 98.5%.
Time accumulated: CPU = 1.71106 s, elapsed = 2.35517 s.
Peak resident memory used = 213 Mbytes.


Notice from spectre during transient analysis `tran', during Monte Carlo analysis `mc1'.
    34 warnings suppressed.

finalTimeOP: writing operating point information to rawfile.

Opening the PSF file ../psf/mc1_separate/001/finalTimeOP.info ...
modelParameter: writing model parameter values to rawfile.

Opening the PSF file ../psf/mc1_separate/001/modelParameter.info ...
element: writing instance parameter values to rawfile.

Opening the PSF file ../psf/mc1_separate/001/element.info ...
outputParameter: writing output parameter values to rawfile.

Opening the PSF file ../psf/mc1_separate/001/outputParameter.info ...
designParamVals: writing netlist parameters to rawfile.

Opening the PSFASCII file ../psf/mc1_separate/001/designParamVals.info ...
primitives: writing primitives to rawfile.

Opening the PSFASCII file ../psf/mc1_separate/001/primitives.info.primitives ...
subckts: writing subcircuits to rawfile.

Opening the PSFASCII file ../psf/mc1_separate/001/subckts.info.subckts ...
2   2.04% 

*****************************************************************************************
* 
* INFO: AMS_processOption = C35B4C3
* 
* INFO: Valid Modules  PIP VG5 HIRES
* 
*****************************************************************************************


******************
DC Analysis `dcOp'
******************

Opening the PSF file ../psf/mc1_separate/002/dcOp.dc ...
Important parameter values:
    reltol = 100e-06
    abstol(V) = 1 uV
    abstol(I) = 1 pA
    temp = -40 C
    tnom = 27 C
    tempeffects = all
    gmindc = 1 pS
    rabsshort = 1 mOhm

Notice from spectre during DC analysis `dcOp', during Monte Carlo analysis `mc1'.
    GminDC = 1 pS is large enough to noticeably affect the DC solution.
        dV(vout) = -224.004 uV
        Use the `gmin_check' option to eliminate or expand this report.
    Bad pivoting is found during DC analysis. Option dc_pivot_check=yes is recommended for possible improvement of convergence.


Maximum value achieved for any signal of each quantity: 
V: V(S<0>) = 3.3 V
I: I(V0:p) = 6.49 uA
Maximum value of each quantity, excluding Verilog-A modules or dangling current sources:
V: V(vout_filt) = 1.6 V
I: I(V0:p) = 6.49 uA

Warning from spectre during check, during DC analysis `dcOp', during Monte Carlo analysis `mc1'.
    WARNING (CMI-2943): Parameter checks have been ignored because the valid value for parameter 'trise' could not be found in 'C1'.
    WARNING (CMI-2943): Parameter checks have been ignored because the valid value for parameter 'trise' could not be found in 'I0.R2.CM'.
    WARNING (CMI-2943): Parameter checks have been ignored because the valid value for parameter 'trise' could not be found in 'I0.R2.CS1'.
    WARNING (CMI-2943): Parameter checks have been ignored because the valid value for parameter 'trise' could not be found in 'I0.R2.CS0'.
    WARNING (CMI-2943): Parameter checks have been ignored because the valid value for parameter 'trise' could not be found in 'I0.C8<3>.C1'.
        Further occurrences of this warning will be suppressed.

Convergence achieved in 21 iterations.
DC simulation time: CPU = 6.288 ms, elapsed = 7.29895 ms.
Total time required for dc analysis `dcOp': CPU = 6.912 ms, elapsed = 7.92217 ms, util. = 87.2%.
Time accumulated: CPU = 1.75507 s, elapsed = 2.40975 s.
Peak resident memory used = 213 Mbytes.


Notice from spectre during Monte Carlo analysis `mc1'.
    34 warnings suppressed.

dcOpInfo: writing operating point information to rawfile.

Opening the PSF file ../psf/mc1_separate/002/dcOpInfo.info ...

************************************************
Transient Analysis `tran': time = (0 s -> 40 ms)
************************************************

Opening the PSF file ../psf/mc1_separate/002/tran.tran.tran ...

Notice from spectre during IC analysis, during transient analysis `tran', during Monte Carlo analysis `mc1'.
    GminDC = 1 pS is large enough to noticeably affect the DC solution.
        dV(vout) = -224.004 uV
        Use the `gmin_check' option to eliminate or expand this report.
    Bad pivoting is found during DC analysis. Option dc_pivot_check=yes is recommended for possible improvement of convergence.
Warning from spectre during check, during IC analysis, during transient analysis `tran', during Monte Carlo analysis `mc1'.
    WARNING (CMI-2943): Parameter checks have been ignored because the valid value for parameter 'trise' could not be found in 'C1'.
    WARNING (CMI-2943): Parameter checks have been ignored because the valid value for parameter 'trise' could not be found in 'I0.R2.CM'.
    WARNING (CMI-2943): Parameter checks have been ignored because the valid value for parameter 'trise' could not be found in 'I0.R2.CS1'.
    WARNING (CMI-2943): Parameter checks have been ignored because the valid value for parameter 'trise' could not be found in 'I0.R2.CS0'.
    WARNING (CMI-2943): Parameter checks have been ignored because the valid value for parameter 'trise' could not be found in 'I0.C8<3>.C1'.
        Further occurrences of this warning will be suppressed.

Convergence achieved in 21 iterations.
DC simulation time: CPU = 3.185 ms, elapsed = 3.25012 ms.
Important parameter values:
    start = 0 s
    outputstart = 0 s
    stop = 40 ms
    step = 40 us
    maxstep = 400 us
    ic = all
    useprevic = no
    skipdc = no
    reltol = 10e-06
    abstol(V) = 1 uV
    abstol(I) = 1 pA
    temp = -40 C
    tnom = 27 C
    tempeffects = all
    errpreset = conservative
    method = gear2only
    lteratio = 10
    relref = alllocal
    cmin = 0 F
    gmin = 1 pS
    rabsshort = 1 mOhm


Notice from spectre during transient analysis `tran', during Monte Carlo analysis `mc1'.
    Multithreading is disabled due to the size of the design being too small.


Output and IC/nodeset summary:
                 save   8       (current)
                 save   87      (voltage)

    tran: time = 1.022 ms    (2.55 %), step = 48.37 us     (121 m%)
    tran: time = 3.035 ms    (7.59 %), step = 47.34 us     (118 m%)
    tran: time = 5.003 ms    (12.5 %), step = 50 us        (125 m%)
    tran: time = 7.016 ms    (17.5 %), step = 48.88 us     (122 m%)
    tran: time = 9.03 ms     (22.6 %), step = 47.75 us     (119 m%)
    tran: time = 11.04 ms    (27.6 %), step = 46.86 us     (117 m%)
    tran: time = 13.01 ms    (32.5 %), step = 49.42 us     (124 m%)
    tran: time = 15.02 ms    (37.6 %), step = 48.21 us     (121 m%)
    tran: time = 17.04 ms    (42.6 %), step = 47.22 us     (118 m%)
    tran: time = 19 ms       (47.5 %), step = 50 us        (125 m%)
    tran: time = 21.02 ms    (52.5 %), step = 48.7 us      (122 m%)
    tran: time = 23.03 ms    (57.6 %), step = 47.6 us      (119 m%)
    tran: time = 25.05 ms    (62.6 %), step = 46.75 us     (117 m%)
    tran: time = 27.01 ms    (67.5 %), step = 49.23 us     (123 m%)
    tran: time = 29.03 ms    (72.6 %), step = 48.05 us     (120 m%)
    tran: time = 31.04 ms    (77.6 %), step = 47.09 us     (118 m%)
    tran: time = 33.01 ms    (82.5 %), step = 49.82 us     (125 m%)
    tran: time = 35.02 ms    (87.5 %), step = 48.54 us     (121 m%)
    tran: time = 37.03 ms    (92.6 %), step = 47.47 us     (119 m%)
    tran: time = 39 ms       (97.5 %), step = 50 us        (125 m%)
Number of accepted tran steps =             851

Maximum value achieved for any signal of each quantity: 
V: V(S<0>) = 3.3 V
I: I(V0:p) = 6.49 uA
Maximum value of each quantity, excluding Verilog-A modules or dangling current sources:
V: V(vout_filt) = 1.614 V
I: I(V0:p) = 6.49 uA

~~~~~~~~~~~~~~~~~~~~~~~~~~~~~~~~~
Post-Transient Simulation Summary
~~~~~~~~~~~~~~~~~~~~~~~~~~~~~~~~~
   -   To further speed up simulation, consider
          add ++aps on command line
   -   Non-default settings that could significantly slow down simulation
          errpreset = conservative, default moderate
          reltol = 10e-06, default 100e-06 (conservative)
~~~~~~~~~~~~~~~~~~~~~~~~~~~~~~~~~


During simulation, the CPU load for active processors is :
         0 (56.0 %)      1 (44.0 %)      2 (17.9 %)      3 (100.0 %)
         4 (13.0 %)      5 (3.5 %)       6 (3.1 %)       7 (9.6 %)
         8 (2.5 %)       9 (35.8 %)     10 (84.0 %)     11 (19.9 %)
        12 (38.4 %)     13 (46.3 %)     14 (16.9 %)     15 (7.7 %)
        16 (6.0 %)      17 (100.0 %)    18 (4.2 %)      19 (2.5 %)
        20 (3.5 %)      21 (7.1 %)      22 (3.1 %)      23 (10.4 %)
        24 (77.9 %)     25 (20.6 %)     26 (11.5 %)     27 (16.4 %)
        28 (8.0 %)      29 (1.1 %)      30 (2.5 %)      31 (100.0 %)
        32 (2.8 %)      33 (3.5 %)      34 (2.8 %)      35 (20.1 %)
        36 (6.3 %)      37 (13.2 %)     38 (80.3 %)     39 (39.8 %)
        40 (5.6 %)      41 (3.9 %)      42 (1.8 %)      43 (100.0 %)
        44 (2.8 %)      45 (36.7 %)     46 (3.2 %)      47 (3.9 %)
        Total: 1200.0%
Initial condition solution time: CPU = 3.216 ms, elapsed = 3.28183 ms.
Intrinsic tran analysis time:    CPU = 519.083 ms, elapsed = 533.318 ms.
Total time required for tran analysis `tran': CPU = 524.258 ms, elapsed = 539.117 ms, util. = 97.2%.
Time accumulated: CPU = 2.28648 s, elapsed = 2.95876 s.
Peak resident memory used = 214 Mbytes.


Notice from spectre during transient analysis `tran', during Monte Carlo analysis `mc1'.
    34 warnings suppressed.

finalTimeOP: writing operating point information to rawfile.

Opening the PSF file ../psf/mc1_separate/002/finalTimeOP.info ...
modelParameter: writing model parameter values to rawfile.

Opening the PSF file ../psf/mc1_separate/002/modelParameter.info ...
element: writing instance parameter values to rawfile.

Opening the PSF file ../psf/mc1_separate/002/element.info ...
outputParameter: writing output parameter values to rawfile.

Opening the PSF file ../psf/mc1_separate/002/outputParameter.info ...
designParamVals: writing netlist parameters to rawfile.

Opening the PSFASCII file ../psf/mc1_separate/002/designParamVals.info ...
primitives: writing primitives to rawfile.

Opening the PSFASCII file ../psf/mc1_separate/002/primitives.info.primitives ...
subckts: writing subcircuits to rawfile.

Opening the PSFASCII file ../psf/mc1_separate/002/subckts.info.subckts ...
3   4.08% 

*****************************************************************************************
* 
* INFO: AMS_processOption = C35B4C3
* 
* INFO: Valid Modules  PIP VG5 HIRES
* 
*****************************************************************************************


******************
DC Analysis `dcOp'
******************

Opening the PSF file ../psf/mc1_separate/003/dcOp.dc ...
Important parameter values:
    reltol = 100e-06
    abstol(V) = 1 uV
    abstol(I) = 1 pA
    temp = -40 C
    tnom = 27 C
    tempeffects = all
    gmindc = 1 pS
    rabsshort = 1 mOhm

Notice from spectre during DC analysis `dcOp', during Monte Carlo analysis `mc1'.
    GminDC = 1 pS is large enough to noticeably affect the DC solution.
        dV(vout) = -224.006 uV
        Use the `gmin_check' option to eliminate or expand this report.
    Bad pivoting is found during DC analysis. Option dc_pivot_check=yes is recommended for possible improvement of convergence.


Maximum value achieved for any signal of each quantity: 
V: V(S<0>) = 3.3 V
I: I(V0:p) = 6.346 uA
Maximum value of each quantity, excluding Verilog-A modules or dangling current sources:
V: V(vout_filt) = 1.6 V
I: I(V0:p) = 6.346 uA

Warning from spectre during check, during DC analysis `dcOp', during Monte Carlo analysis `mc1'.
    WARNING (CMI-2943): Parameter checks have been ignored because the valid value for parameter 'trise' could not be found in 'C1'.
    WARNING (CMI-2943): Parameter checks have been ignored because the valid value for parameter 'trise' could not be found in 'I0.R2.CM'.
    WARNING (CMI-2943): Parameter checks have been ignored because the valid value for parameter 'trise' could not be found in 'I0.R2.CS1'.
    WARNING (CMI-2943): Parameter checks have been ignored because the valid value for parameter 'trise' could not be found in 'I0.R2.CS0'.
    WARNING (CMI-2943): Parameter checks have been ignored because the valid value for parameter 'trise' could not be found in 'I0.C8<3>.C1'.
        Further occurrences of this warning will be suppressed.

Convergence achieved in 21 iterations.
DC simulation time: CPU = 5.712 ms, elapsed = 6.88314 ms.
Total time required for dc analysis `dcOp': CPU = 6.244 ms, elapsed = 7.42316 ms, util. = 84.1%.
Time accumulated: CPU = 2.33045 s, elapsed = 3.01423 s.
Peak resident memory used = 214 Mbytes.


Notice from spectre during Monte Carlo analysis `mc1'.
    34 warnings suppressed.

dcOpInfo: writing operating point information to rawfile.

Opening the PSF file ../psf/mc1_separate/003/dcOpInfo.info ...

************************************************
Transient Analysis `tran': time = (0 s -> 40 ms)
************************************************

Opening the PSF file ../psf/mc1_separate/003/tran.tran.tran ...

Notice from spectre during IC analysis, during transient analysis `tran', during Monte Carlo analysis `mc1'.
    GminDC = 1 pS is large enough to noticeably affect the DC solution.
        dV(vout) = -224.006 uV
        Use the `gmin_check' option to eliminate or expand this report.
    Bad pivoting is found during DC analysis. Option dc_pivot_check=yes is recommended for possible improvement of convergence.
Warning from spectre during check, during IC analysis, during transient analysis `tran', during Monte Carlo analysis `mc1'.
    WARNING (CMI-2943): Parameter checks have been ignored because the valid value for parameter 'trise' could not be found in 'C1'.
    WARNING (CMI-2943): Parameter checks have been ignored because the valid value for parameter 'trise' could not be found in 'I0.R2.CM'.
    WARNING (CMI-2943): Parameter checks have been ignored because the valid value for parameter 'trise' could not be found in 'I0.R2.CS1'.
    WARNING (CMI-2943): Parameter checks have been ignored because the valid value for parameter 'trise' could not be found in 'I0.R2.CS0'.
    WARNING (CMI-2943): Parameter checks have been ignored because the valid value for parameter 'trise' could not be found in 'I0.C8<3>.C1'.
        Further occurrences of this warning will be suppressed.

Convergence achieved in 21 iterations.
DC simulation time: CPU = 3.058 ms, elapsed = 3.05891 ms.
Important parameter values:
    start = 0 s
    outputstart = 0 s
    stop = 40 ms
    step = 40 us
    maxstep = 400 us
    ic = all
    useprevic = no
    skipdc = no
    reltol = 10e-06
    abstol(V) = 1 uV
    abstol(I) = 1 pA
    temp = -40 C
    tnom = 27 C
    tempeffects = all
    errpreset = conservative
    method = gear2only
    lteratio = 10
    relref = alllocal
    cmin = 0 F
    gmin = 1 pS
    rabsshort = 1 mOhm


Notice from spectre during transient analysis `tran', during Monte Carlo analysis `mc1'.
    Multithreading is disabled due to the size of the design being too small.


Output and IC/nodeset summary:
                 save   8       (current)
                 save   87      (voltage)

    tran: time = 1.021 ms    (2.55 %), step = 48.45 us     (121 m%)
    tran: time = 3.035 ms    (7.59 %), step = 47.41 us     (119 m%)
    tran: time = 5.001 ms    (12.5 %), step = 50 us        (125 m%)
    tran: time = 7.015 ms    (17.5 %), step = 48.98 us     (122 m%)
    tran: time = 9.028 ms    (22.6 %), step = 47.83 us     (120 m%)
    tran: time = 11.04 ms    (27.6 %), step = 46.93 us     (117 m%)
    tran: time = 13.01 ms    (32.5 %), step = 49.55 us     (124 m%)
    tran: time = 15.02 ms    (37.6 %), step = 48.32 us     (121 m%)
    tran: time = 17.04 ms    (42.6 %), step = 47.31 us     (118 m%)
    tran: time = 19 ms       (47.5 %), step = 50 us        (125 m%)
    tran: time = 21.02 ms    (52.5 %), step = 48.84 us     (122 m%)
    tran: time = 23.03 ms    (57.6 %), step = 47.72 us     (119 m%)
    tran: time = 25.04 ms    (62.6 %), step = 46.85 us     (117 m%)
    tran: time = 27.01 ms    (67.5 %), step = 49.4 us      (123 m%)
    tran: time = 29.02 ms    (72.6 %), step = 48.19 us     (120 m%)
    tran: time = 31.04 ms    (77.6 %), step = 47.21 us     (118 m%)
    tran: time = 33 ms       (82.5 %), step = 50 us        (125 m%)
    tran: time = 35.02 ms    (87.5 %), step = 48.7 us      (122 m%)
    tran: time = 37.03 ms    (92.6 %), step = 47.61 us     (119 m%)
    tran: time = 39.05 ms    (97.6 %), step = 46.76 us     (117 m%)
Number of accepted tran steps =             851

Maximum value achieved for any signal of each quantity: 
V: V(S<0>) = 3.3 V
I: I(V0:p) = 6.346 uA
Maximum value of each quantity, excluding Verilog-A modules or dangling current sources:
V: V(vout_filt) = 1.614 V
I: I(V0:p) = 6.346 uA

~~~~~~~~~~~~~~~~~~~~~~~~~~~~~~~~~
Post-Transient Simulation Summary
~~~~~~~~~~~~~~~~~~~~~~~~~~~~~~~~~
   -   To further speed up simulation, consider
          add ++aps on command line
   -   Non-default settings that could significantly slow down simulation
          errpreset = conservative, default moderate
          reltol = 10e-06, default 100e-06 (conservative)
~~~~~~~~~~~~~~~~~~~~~~~~~~~~~~~~~


During simulation, the CPU load for active processors is :
         0 (63.1 %)      1 (37.8 %)      2 (18.1 %)      3 (100.0 %)
         4 (11.1 %)      5 (3.5 %)       6 (2.9 %)       7 (8.2 %)
         8 (2.1 %)       9 (46.8 %)     10 (70.2 %)     11 (19.9 %)
        12 (49.1 %)     13 (55.1 %)     14 (14.4 %)     15 (6.4 %)
        16 (5.0 %)      17 (100.0 %)    18 (3.8 %)      19 (2.3 %)
        20 (3.2 %)      21 (7.3 %)      22 (3.2 %)      23 (10.6 %)
        24 (66.0 %)     25 (31.9 %)     26 (12.5 %)     27 (14.8 %)
        28 (8.1 %)      29 (1.2 %)      30 (3.2 %)      31 (100.0 %)
        32 (2.6 %)      33 (3.5 %)      34 (2.6 %)      35 (19.4 %)
        36 (8.7 %)      37 (11.6 %)     38 (73.1 %)     39 (50.1 %)
        40 (5.5 %)      41 (3.5 %)      42 (2.3 %)      43 (100.0 %)
        44 (2.6 %)      45 (31.8 %)     46 (2.7 %)      47 (4.7 %)
        Total: 1206.5%
Initial condition solution time: CPU = 3.09 ms, elapsed = 3.09181 ms.
Intrinsic tran analysis time:    CPU = 515.575 ms, elapsed = 525.279 ms.
Total time required for tran analysis `tran': CPU = 520.366 ms, elapsed = 530.666 ms, util. = 98.1%.
Time accumulated: CPU = 2.85764 s, elapsed = 3.55427 s.
Peak resident memory used = 214 Mbytes.


Notice from spectre during transient analysis `tran', during Monte Carlo analysis `mc1'.
    34 warnings suppressed.

finalTimeOP: writing operating point information to rawfile.

Opening the PSF file ../psf/mc1_separate/003/finalTimeOP.info ...
modelParameter: writing model parameter values to rawfile.

Opening the PSF file ../psf/mc1_separate/003/modelParameter.info ...
element: writing instance parameter values to rawfile.

Opening the PSF file ../psf/mc1_separate/003/element.info ...
outputParameter: writing output parameter values to rawfile.

Opening the PSF file ../psf/mc1_separate/003/outputParameter.info ...
designParamVals: writing netlist parameters to rawfile.

Opening the PSFASCII file ../psf/mc1_separate/003/designParamVals.info ...
primitives: writing primitives to rawfile.

Opening the PSFASCII file ../psf/mc1_separate/003/primitives.info.primitives ...
subckts: writing subcircuits to rawfile.

Opening the PSFASCII file ../psf/mc1_separate/003/subckts.info.subckts ...
    mc1: iteration = 3           (4.08 %), step = 1            (2.04 %)
4   6.12% 

*****************************************************************************************
* 
* INFO: AMS_processOption = C35B4C3
* 
* INFO: Valid Modules  PIP VG5 HIRES
* 
*****************************************************************************************


******************
DC Analysis `dcOp'
******************

Opening the PSF file ../psf/mc1_separate/004/dcOp.dc ...
Important parameter values:
    reltol = 100e-06
    abstol(V) = 1 uV
    abstol(I) = 1 pA
    temp = -40 C
    tnom = 27 C
    tempeffects = all
    gmindc = 1 pS
    rabsshort = 1 mOhm

Notice from spectre during DC analysis `dcOp', during Monte Carlo analysis `mc1'.
    GminDC = 1 pS is large enough to noticeably affect the DC solution.
        dV(vout) = -223.837 uV
        Use the `gmin_check' option to eliminate or expand this report.
    Bad pivoting is found during DC analysis. Option dc_pivot_check=yes is recommended for possible improvement of convergence.


Maximum value achieved for any signal of each quantity: 
V: V(S<0>) = 3.3 V
I: I(V0:p) = 6.539 uA
Maximum value of each quantity, excluding Verilog-A modules or dangling current sources:
V: V(net1) = 1.6 V
I: I(V0:p) = 6.539 uA

Warning from spectre during check, during DC analysis `dcOp', during Monte Carlo analysis `mc1'.
    WARNING (CMI-2943): Parameter checks have been ignored because the valid value for parameter 'trise' could not be found in 'C1'.
    WARNING (CMI-2943): Parameter checks have been ignored because the valid value for parameter 'trise' could not be found in 'I0.R2.CM'.
    WARNING (CMI-2943): Parameter checks have been ignored because the valid value for parameter 'trise' could not be found in 'I0.R2.CS1'.
    WARNING (CMI-2943): Parameter checks have been ignored because the valid value for parameter 'trise' could not be found in 'I0.R2.CS0'.
    WARNING (CMI-2943): Parameter checks have been ignored because the valid value for parameter 'trise' could not be found in 'I0.C8<3>.C1'.
        Further occurrences of this warning will be suppressed.

Convergence achieved in 17 iterations.
DC simulation time: CPU = 5.2 ms, elapsed = 6.28781 ms.
Total time required for dc analysis `dcOp': CPU = 5.744 ms, elapsed = 6.83284 ms, util. = 84.1%.
Time accumulated: CPU = 2.90129 s, elapsed = 3.6089 s.
Peak resident memory used = 214 Mbytes.


Notice from spectre during Monte Carlo analysis `mc1'.
    34 warnings suppressed.

dcOpInfo: writing operating point information to rawfile.

Opening the PSF file ../psf/mc1_separate/004/dcOpInfo.info ...

************************************************
Transient Analysis `tran': time = (0 s -> 40 ms)
************************************************

Opening the PSF file ../psf/mc1_separate/004/tran.tran.tran ...

Notice from spectre during IC analysis, during transient analysis `tran', during Monte Carlo analysis `mc1'.
    GminDC = 1 pS is large enough to noticeably affect the DC solution.
        dV(vout) = -223.837 uV
        Use the `gmin_check' option to eliminate or expand this report.
    Bad pivoting is found during DC analysis. Option dc_pivot_check=yes is recommended for possible improvement of convergence.
Warning from spectre during check, during IC analysis, during transient analysis `tran', during Monte Carlo analysis `mc1'.
    WARNING (CMI-2943): Parameter checks have been ignored because the valid value for parameter 'trise' could not be found in 'C1'.
    WARNING (CMI-2943): Parameter checks have been ignored because the valid value for parameter 'trise' could not be found in 'I0.R2.CM'.
    WARNING (CMI-2943): Parameter checks have been ignored because the valid value for parameter 'trise' could not be found in 'I0.R2.CS1'.
    WARNING (CMI-2943): Parameter checks have been ignored because the valid value for parameter 'trise' could not be found in 'I0.R2.CS0'.
    WARNING (CMI-2943): Parameter checks have been ignored because the valid value for parameter 'trise' could not be found in 'I0.C8<3>.C1'.
        Further occurrences of this warning will be suppressed.

Convergence achieved in 17 iterations.
DC simulation time: CPU = 2.691 ms, elapsed = 2.69198 ms.
Important parameter values:
    start = 0 s
    outputstart = 0 s
    stop = 40 ms
    step = 40 us
    maxstep = 400 us
    ic = all
    useprevic = no
    skipdc = no
    reltol = 10e-06
    abstol(V) = 1 uV
    abstol(I) = 1 pA
    temp = -40 C
    tnom = 27 C
    tempeffects = all
    errpreset = conservative
    method = gear2only
    lteratio = 10
    relref = alllocal
    cmin = 0 F
    gmin = 1 pS
    rabsshort = 1 mOhm


Notice from spectre during transient analysis `tran', during Monte Carlo analysis `mc1'.
    Multithreading is disabled due to the size of the design being too small.


Output and IC/nodeset summary:
                 save   8       (current)
                 save   87      (voltage)

    tran: time = 1.017 ms    (2.54 %), step = 48.73 us     (122 m%)
    tran: time = 3.031 ms    (7.58 %), step = 47.64 us     (119 m%)
    tran: time = 5.044 ms    (12.6 %), step = 46.8 us      (117 m%)
    tran: time = 7.011 ms    (17.5 %), step = 49.35 us     (123 m%)
    tran: time = 9.024 ms    (22.6 %), step = 48.17 us     (120 m%)
    tran: time = 11.04 ms    (27.6 %), step = 47.21 us     (118 m%)
    tran: time = 13 ms       (32.5 %), step = 50 us        (125 m%)
    tran: time = 15.02 ms    (37.5 %), step = 48.75 us     (122 m%)
    tran: time = 17.03 ms    (42.6 %), step = 47.66 us     (119 m%)
    tran: time = 19.04 ms    (47.6 %), step = 46.82 us     (117 m%)
    tran: time = 21.01 ms    (52.5 %), step = 49.38 us     (123 m%)
    tran: time = 23.02 ms    (57.6 %), step = 48.2 us      (120 m%)
    tran: time = 25.04 ms    (62.6 %), step = 47.22 us     (118 m%)
    tran: time = 27 ms       (67.5 %), step = 50 us        (125 m%)
    tran: time = 29.02 ms    (72.5 %), step = 48.78 us     (122 m%)
    tran: time = 31.03 ms    (77.6 %), step = 47.68 us     (119 m%)
    tran: time = 33.04 ms    (82.6 %), step = 46.83 us     (117 m%)
    tran: time = 35.01 ms    (87.5 %), step = 49.41 us     (124 m%)
    tran: time = 37.02 ms    (92.6 %), step = 48.22 us     (121 m%)
    tran: time = 39.04 ms    (97.6 %), step = 47.24 us     (118 m%)
Number of accepted tran steps =             852

Maximum value achieved for any signal of each quantity: 
V: V(S<0>) = 3.3 V
I: I(V0:p) = 6.539 uA
Maximum value of each quantity, excluding Verilog-A modules or dangling current sources:
V: V(vout_filt) = 1.613 V
I: I(V0:p) = 6.539 uA

~~~~~~~~~~~~~~~~~~~~~~~~~~~~~~~~~
Post-Transient Simulation Summary
~~~~~~~~~~~~~~~~~~~~~~~~~~~~~~~~~
   -   To further speed up simulation, consider
          add ++aps on command line
   -   Non-default settings that could significantly slow down simulation
          errpreset = conservative, default moderate
          reltol = 10e-06, default 100e-06 (conservative)
~~~~~~~~~~~~~~~~~~~~~~~~~~~~~~~~~


During simulation, the CPU load for active processors is :
         0 (67.8 %)      1 (32.8 %)      2 (16.4 %)      3 (100.0 %)
         4 (12.9 %)      5 (3.5 %)       6 (2.5 %)       7 (8.0 %)
         8 (2.0 %)       9 (54.5 %)     10 (60.7 %)     11 (20.3 %)
        12 (50.5 %)     13 (48.3 %)     14 (12.8 %)     15 (6.0 %)
        16 (4.5 %)      17 (100.0 %)    18 (9.5 %)      19 (15.7 %)
        20 (3.2 %)      21 (6.5 %)      22 (3.0 %)      23 (12.3 %)
        24 (58.1 %)     25 (40.4 %)     26 (12.4 %)     27 (14.9 %)
        28 (7.2 %)      29 (1.3 %)      30 (3.2 %)      31 (100.0 %)
        32 (2.5 %)      33 (3.2 %)      34 (2.5 %)      35 (16.9 %)
        36 (8.2 %)      37 (10.4 %)     38 (65.5 %)     39 (56.1 %)
        40 (6.2 %)      41 (14.4 %)     42 (2.3 %)      43 (100.0 %)
        44 (3.0 %)      45 (27.6 %)     46 (3.0 %)      47 (4.5 %)
        Total: 1217.6%
Initial condition solution time: CPU = 2.722 ms, elapsed = 2.72393 ms.
Intrinsic tran analysis time:    CPU = 512.449 ms, elapsed = 514.239 ms.
Total time required for tran analysis `tran': CPU = 517.046 ms, elapsed = 519.454 ms, util. = 99.5%.
Time accumulated: CPU = 3.42523 s, elapsed = 4.13745 s.
Peak resident memory used = 214 Mbytes.


Notice from spectre during transient analysis `tran', during Monte Carlo analysis `mc1'.
    34 warnings suppressed.

finalTimeOP: writing operating point information to rawfile.

Opening the PSF file ../psf/mc1_separate/004/finalTimeOP.info ...
modelParameter: writing model parameter values to rawfile.

Opening the PSF file ../psf/mc1_separate/004/modelParameter.info ...
element: writing instance parameter values to rawfile.

Opening the PSF file ../psf/mc1_separate/004/element.info ...
outputParameter: writing output parameter values to rawfile.

Opening the PSF file ../psf/mc1_separate/004/outputParameter.info ...
designParamVals: writing netlist parameters to rawfile.

Opening the PSFASCII file ../psf/mc1_separate/004/designParamVals.info ...
primitives: writing primitives to rawfile.

Opening the PSFASCII file ../psf/mc1_separate/004/primitives.info.primitives ...
subckts: writing subcircuits to rawfile.

Opening the PSFASCII file ../psf/mc1_separate/004/subckts.info.subckts ...
    mc1: iteration = 4           (6.12 %), step = 1            (2.04 %)
5   8.16% 

*****************************************************************************************
* 
* INFO: AMS_processOption = C35B4C3
* 
* INFO: Valid Modules  PIP VG5 HIRES
* 
*****************************************************************************************


******************
DC Analysis `dcOp'
******************

Opening the PSF file ../psf/mc1_separate/005/dcOp.dc ...
Important parameter values:
    reltol = 100e-06
    abstol(V) = 1 uV
    abstol(I) = 1 pA
    temp = -40 C
    tnom = 27 C
    tempeffects = all
    gmindc = 1 pS
    rabsshort = 1 mOhm

Notice from spectre during DC analysis `dcOp', during Monte Carlo analysis `mc1'.
    GminDC = 1 pS is large enough to noticeably affect the DC solution.
        dV(vout) = -224.056 uV
        Use the `gmin_check' option to eliminate or expand this report.
    Bad pivoting is found during DC analysis. Option dc_pivot_check=yes is recommended for possible improvement of convergence.


Maximum value achieved for any signal of each quantity: 
V: V(S<0>) = 3.3 V
I: I(V0:p) = 6.419 uA
Maximum value of each quantity, excluding Verilog-A modules or dangling current sources:
V: V(vout_filt) = 1.601 V
I: I(V0:p) = 6.419 uA

Warning from spectre during check, during DC analysis `dcOp', during Monte Carlo analysis `mc1'.
    WARNING (CMI-2943): Parameter checks have been ignored because the valid value for parameter 'trise' could not be found in 'C1'.
    WARNING (CMI-2943): Parameter checks have been ignored because the valid value for parameter 'trise' could not be found in 'I0.R2.CM'.
    WARNING (CMI-2943): Parameter checks have been ignored because the valid value for parameter 'trise' could not be found in 'I0.R2.CS1'.
    WARNING (CMI-2943): Parameter checks have been ignored because the valid value for parameter 'trise' could not be found in 'I0.R2.CS0'.
    WARNING (CMI-2943): Parameter checks have been ignored because the valid value for parameter 'trise' could not be found in 'I0.C8<3>.C1'.
        Further occurrences of this warning will be suppressed.

Convergence achieved in 21 iterations.
DC simulation time: CPU = 6.117 ms, elapsed = 7.2 ms.
Total time required for dc analysis `dcOp': CPU = 6.629 ms, elapsed = 7.71213 ms, util. = 86%.
Time accumulated: CPU = 3.47342 s, elapsed = 4.19654 s.
Peak resident memory used = 214 Mbytes.


Notice from spectre during Monte Carlo analysis `mc1'.
    34 warnings suppressed.

dcOpInfo: writing operating point information to rawfile.

Opening the PSF file ../psf/mc1_separate/005/dcOpInfo.info ...

************************************************
Transient Analysis `tran': time = (0 s -> 40 ms)
************************************************

Opening the PSF file ../psf/mc1_separate/005/tran.tran.tran ...

Notice from spectre during IC analysis, during transient analysis `tran', during Monte Carlo analysis `mc1'.
    GminDC = 1 pS is large enough to noticeably affect the DC solution.
        dV(vout) = -224.056 uV
        Use the `gmin_check' option to eliminate or expand this report.
    Bad pivoting is found during DC analysis. Option dc_pivot_check=yes is recommended for possible improvement of convergence.
Warning from spectre during check, during IC analysis, during transient analysis `tran', during Monte Carlo analysis `mc1'.
    WARNING (CMI-2943): Parameter checks have been ignored because the valid value for parameter 'trise' could not be found in 'C1'.
    WARNING (CMI-2943): Parameter checks have been ignored because the valid value for parameter 'trise' could not be found in 'I0.R2.CM'.
    WARNING (CMI-2943): Parameter checks have been ignored because the valid value for parameter 'trise' could not be found in 'I0.R2.CS1'.
    WARNING (CMI-2943): Parameter checks have been ignored because the valid value for parameter 'trise' could not be found in 'I0.R2.CS0'.
    WARNING (CMI-2943): Parameter checks have been ignored because the valid value for parameter 'trise' could not be found in 'I0.C8<3>.C1'.
        Further occurrences of this warning will be suppressed.

Convergence achieved in 21 iterations.
DC simulation time: CPU = 3.189 ms, elapsed = 3.21507 ms.
Important parameter values:
    start = 0 s
    outputstart = 0 s
    stop = 40 ms
    step = 40 us
    maxstep = 400 us
    ic = all
    useprevic = no
    skipdc = no
    reltol = 10e-06
    abstol(V) = 1 uV
    abstol(I) = 1 pA
    temp = -40 C
    tnom = 27 C
    tempeffects = all
    errpreset = conservative
    method = gear2only
    lteratio = 10
    relref = alllocal
    cmin = 0 F
    gmin = 1 pS
    rabsshort = 1 mOhm


Notice from spectre during transient analysis `tran', during Monte Carlo analysis `mc1'.
    Multithreading is disabled due to the size of the design being too small.


Output and IC/nodeset summary:
                 save   8       (current)
                 save   87      (voltage)

    tran: time = 1.021 ms    (2.55 %), step = 48.4 us      (121 m%)
    tran: time = 3.035 ms    (7.59 %), step = 47.36 us     (118 m%)
    tran: time = 5.003 ms    (12.5 %), step = 50 us        (125 m%)
    tran: time = 7.016 ms    (17.5 %), step = 48.88 us     (122 m%)
    tran: time = 9.03 ms     (22.6 %), step = 47.74 us     (119 m%)
    tran: time = 11.04 ms    (27.6 %), step = 46.85 us     (117 m%)
    tran: time = 13.01 ms    (32.5 %), step = 49.39 us     (123 m%)
    tran: time = 15.02 ms    (37.6 %), step = 48.17 us     (120 m%)
    tran: time = 17.04 ms    (42.6 %), step = 47.18 us     (118 m%)
    tran: time = 19.01 ms    (47.5 %), step = 49.95 us     (125 m%)
    tran: time = 21.02 ms    (52.5 %), step = 48.63 us     (122 m%)
    tran: time = 23.03 ms    (57.6 %), step = 47.54 us     (119 m%)
    tran: time = 25.05 ms    (62.6 %), step = 46.7 us      (117 m%)
    tran: time = 27.01 ms    (67.5 %), step = 49.13 us     (123 m%)
    tran: time = 29.03 ms    (72.6 %), step = 47.96 us     (120 m%)
    tran: time = 31.04 ms    (77.6 %), step = 47.02 us     (118 m%)
    tran: time = 33.01 ms    (82.5 %), step = 49.68 us     (124 m%)
    tran: time = 35.02 ms    (87.6 %), step = 48.41 us     (121 m%)
    tran: time = 37.04 ms    (92.6 %), step = 47.37 us     (118 m%)
    tran: time = 39 ms       (97.5 %), step = 50 us        (125 m%)
Number of accepted tran steps =             851

Maximum value achieved for any signal of each quantity: 
V: V(S<0>) = 3.3 V
I: I(V0:p) = 6.419 uA
Maximum value of each quantity, excluding Verilog-A modules or dangling current sources:
V: V(vout_filt) = 1.614 V
I: I(V0:p) = 6.419 uA

~~~~~~~~~~~~~~~~~~~~~~~~~~~~~~~~~
Post-Transient Simulation Summary
~~~~~~~~~~~~~~~~~~~~~~~~~~~~~~~~~
   -   To further speed up simulation, consider
          add ++aps on command line
   -   Non-default settings that could significantly slow down simulation
          errpreset = conservative, default moderate
          reltol = 10e-06, default 100e-06 (conservative)
~~~~~~~~~~~~~~~~~~~~~~~~~~~~~~~~~


During simulation, the CPU load for active processors is :
         0 (71.5 %)      1 (28.9 %)      2 (14.3 %)      3 (90.6 %)
         4 (13.7 %)      5 (3.3 %)       6 (2.4 %)       7 (7.8 %)
         8 (2.0 %)       9 (60.3 %)     10 (53.5 %)     11 (20.1 %)
        12 (44.3 %)     13 (54.5 %)     14 (11.2 %)     15 (5.4 %)
        16 (4.6 %)      17 (100.0 %)    18 (21.0 %)     19 (13.8 %)
        20 (3.1 %)      21 (6.8 %)      22 (2.8 %)      23 (16.2 %)
        24 (51.0 %)     25 (41.4 %)     26 (12.1 %)     27 (13.2 %)
        28 (13.0 %)     29 (1.8 %)      30 (2.8 %)      31 (100.0 %)
        32 (2.8 %)      33 (3.3 %)      34 (2.4 %)      35 (14.8 %)
        36 (8.3 %)      37 (18.9 %)     38 (59.8 %)     39 (61.6 %)
        40 (6.1 %)      41 (13.4 %)     42 (2.4 %)      43 (100.0 %)
        44 (11.1 %)     45 (24.3 %)     46 (3.3 %)      47 (4.4 %)
        Total: 1224.2%
Initial condition solution time: CPU = 3.227 ms, elapsed = 3.25513 ms.
Intrinsic tran analysis time:    CPU = 512.311 ms, elapsed = 515.934 ms.
Total time required for tran analysis `tran': CPU = 517.336 ms, elapsed = 521.536 ms, util. = 99.2%.
Time accumulated: CPU = 3.99796 s, elapsed = 4.72786 s.
Peak resident memory used = 214 Mbytes.


Notice from spectre during transient analysis `tran', during Monte Carlo analysis `mc1'.
    34 warnings suppressed.

finalTimeOP: writing operating point information to rawfile.

Opening the PSF file ../psf/mc1_separate/005/finalTimeOP.info ...
modelParameter: writing model parameter values to rawfile.

Opening the PSF file ../psf/mc1_separate/005/modelParameter.info ...
element: writing instance parameter values to rawfile.

Opening the PSF file ../psf/mc1_separate/005/element.info ...
outputParameter: writing output parameter values to rawfile.

Opening the PSF file ../psf/mc1_separate/005/outputParameter.info ...
designParamVals: writing netlist parameters to rawfile.

Opening the PSFASCII file ../psf/mc1_separate/005/designParamVals.info ...
primitives: writing primitives to rawfile.

Opening the PSFASCII file ../psf/mc1_separate/005/primitives.info.primitives ...
subckts: writing subcircuits to rawfile.

Opening the PSFASCII file ../psf/mc1_separate/005/subckts.info.subckts ...
    mc1: iteration = 5           (8.16 %), step = 1            (2.04 %)
6  10.20% 

*****************************************************************************************
* 
* INFO: AMS_processOption = C35B4C3
* 
* INFO: Valid Modules  PIP VG5 HIRES
* 
*****************************************************************************************


******************
DC Analysis `dcOp'
******************

Opening the PSF file ../psf/mc1_separate/006/dcOp.dc ...
Important parameter values:
    reltol = 100e-06
    abstol(V) = 1 uV
    abstol(I) = 1 pA
    temp = -40 C
    tnom = 27 C
    tempeffects = all
    gmindc = 1 pS
    rabsshort = 1 mOhm

Notice from spectre during DC analysis `dcOp', during Monte Carlo analysis `mc1'.
    GminDC = 1 pS is large enough to noticeably affect the DC solution.
        dV(vout) = -223.837 uV
        Use the `gmin_check' option to eliminate or expand this report.
    Bad pivoting is found during DC analysis. Option dc_pivot_check=yes is recommended for possible improvement of convergence.


Maximum value achieved for any signal of each quantity: 
V: V(S<0>) = 3.3 V
I: I(V0:p) = 6.458 uA
Maximum value of each quantity, excluding Verilog-A modules or dangling current sources:
V: V(net1) = 1.6 V
I: I(V0:p) = 6.458 uA

Warning from spectre during check, during DC analysis `dcOp', during Monte Carlo analysis `mc1'.
    WARNING (CMI-2943): Parameter checks have been ignored because the valid value for parameter 'trise' could not be found in 'C1'.
    WARNING (CMI-2943): Parameter checks have been ignored because the valid value for parameter 'trise' could not be found in 'I0.R2.CM'.
    WARNING (CMI-2943): Parameter checks have been ignored because the valid value for parameter 'trise' could not be found in 'I0.R2.CS1'.
    WARNING (CMI-2943): Parameter checks have been ignored because the valid value for parameter 'trise' could not be found in 'I0.R2.CS0'.
    WARNING (CMI-2943): Parameter checks have been ignored because the valid value for parameter 'trise' could not be found in 'I0.C8<3>.C1'.
        Further occurrences of this warning will be suppressed.

Convergence achieved in 21 iterations.
DC simulation time: CPU = 6.333 ms, elapsed = 7.8311 ms.
Total time required for dc analysis `dcOp': CPU = 7.011 ms, elapsed = 8.50797 ms, util. = 82.4%.
Time accumulated: CPU = 4.04416 s, elapsed = 4.7849 s.
Peak resident memory used = 214 Mbytes.


Notice from spectre during Monte Carlo analysis `mc1'.
    34 warnings suppressed.

dcOpInfo: writing operating point information to rawfile.

Opening the PSF file ../psf/mc1_separate/006/dcOpInfo.info ...

************************************************
Transient Analysis `tran': time = (0 s -> 40 ms)
************************************************

Opening the PSF file ../psf/mc1_separate/006/tran.tran.tran ...

Notice from spectre during IC analysis, during transient analysis `tran', during Monte Carlo analysis `mc1'.
    GminDC = 1 pS is large enough to noticeably affect the DC solution.
        dV(vout) = -223.837 uV
        Use the `gmin_check' option to eliminate or expand this report.
    Bad pivoting is found during DC analysis. Option dc_pivot_check=yes is recommended for possible improvement of convergence.
Warning from spectre during check, during IC analysis, during transient analysis `tran', during Monte Carlo analysis `mc1'.
    WARNING (CMI-2943): Parameter checks have been ignored because the valid value for parameter 'trise' could not be found in 'C1'.
    WARNING (CMI-2943): Parameter checks have been ignored because the valid value for parameter 'trise' could not be found in 'I0.R2.CM'.
    WARNING (CMI-2943): Parameter checks have been ignored because the valid value for parameter 'trise' could not be found in 'I0.R2.CS1'.
    WARNING (CMI-2943): Parameter checks have been ignored because the valid value for parameter 'trise' could not be found in 'I0.R2.CS0'.
    WARNING (CMI-2943): Parameter checks have been ignored because the valid value for parameter 'trise' could not be found in 'I0.C8<3>.C1'.
        Further occurrences of this warning will be suppressed.

Convergence achieved in 21 iterations.
DC simulation time: CPU = 3.346 ms, elapsed = 3.40319 ms.
Important parameter values:
    start = 0 s
    outputstart = 0 s
    stop = 40 ms
    step = 40 us
    maxstep = 400 us
    ic = all
    useprevic = no
    skipdc = no
    reltol = 10e-06
    abstol(V) = 1 uV
    abstol(I) = 1 pA
    temp = -40 C
    tnom = 27 C
    tempeffects = all
    errpreset = conservative
    method = gear2only
    lteratio = 10
    relref = alllocal
    cmin = 0 F
    gmin = 1 pS
    rabsshort = 1 mOhm


Notice from spectre during transient analysis `tran', during Monte Carlo analysis `mc1'.
    Multithreading is disabled due to the size of the design being too small.


Output and IC/nodeset summary:
                 save   8       (current)
                 save   87      (voltage)

    tran: time = 1.022 ms    (2.55 %), step = 48.37 us     (121 m%)
    tran: time = 3.035 ms    (7.59 %), step = 47.35 us     (118 m%)
    tran: time = 5.002 ms    (12.5 %), step = 50 us        (125 m%)
    tran: time = 7.015 ms    (17.5 %), step = 48.93 us     (122 m%)
    tran: time = 9.029 ms    (22.6 %), step = 47.8 us      (119 m%)
    tran: time = 11.04 ms    (27.6 %), step = 46.91 us     (117 m%)
    tran: time = 13.01 ms    (32.5 %), step = 49.53 us     (124 m%)
    tran: time = 15.02 ms    (37.6 %), step = 48.31 us     (121 m%)
    tran: time = 17.04 ms    (42.6 %), step = 47.31 us     (118 m%)
    tran: time = 19 ms       (47.5 %), step = 50 us        (125 m%)
    tran: time = 21.02 ms    (52.5 %), step = 48.87 us     (122 m%)
    tran: time = 23.03 ms    (57.6 %), step = 47.75 us     (119 m%)
    tran: time = 25.04 ms    (62.6 %), step = 46.88 us     (117 m%)
    tran: time = 27.01 ms    (67.5 %), step = 49.47 us     (124 m%)
    tran: time = 29.02 ms    (72.6 %), step = 48.26 us     (121 m%)
    tran: time = 31.04 ms    (77.6 %), step = 47.27 us     (118 m%)
    tran: time = 33 ms       (82.5 %), step = 50 us        (125 m%)
    tran: time = 35.02 ms    (87.5 %), step = 48.81 us     (122 m%)
    tran: time = 37.03 ms    (92.6 %), step = 47.7 us      (119 m%)
    tran: time = 39.04 ms    (97.6 %), step = 46.84 us     (117 m%)
Number of accepted tran steps =             851

Maximum value achieved for any signal of each quantity: 
V: V(S<0>) = 3.3 V
I: I(V0:p) = 6.458 uA
Maximum value of each quantity, excluding Verilog-A modules or dangling current sources:
V: V(vout_filt) = 1.613 V
I: I(V0:p) = 6.458 uA

~~~~~~~~~~~~~~~~~~~~~~~~~~~~~~~~~
Post-Transient Simulation Summary
~~~~~~~~~~~~~~~~~~~~~~~~~~~~~~~~~
   -   To further speed up simulation, consider
          add ++aps on command line
   -   Non-default settings that could significantly slow down simulation
          errpreset = conservative, default moderate
          reltol = 10e-06, default 100e-06 (conservative)
~~~~~~~~~~~~~~~~~~~~~~~~~~~~~~~~~


During simulation, the CPU load for active processors is :
         0 (67.6 %)      1 (25.8 %)      2 (13.3 %)      3 (80.6 %)
         4 (14.3 %)      5 (3.3 %)       6 (2.3 %)       7 (14.1 %)
         8 (2.5 %)       9 (64.8 %)     10 (47.9 %)     11 (20.0 %)
        12 (41.2 %)     13 (59.0 %)     14 (10.1 %)     15 (5.2 %)
        16 (4.7 %)      17 (100.0 %)    18 (29.2 %)     19 (12.8 %)
        20 (3.1 %)      21 (6.4 %)      22 (2.7 %)      23 (16.1 %)
        24 (46.0 %)     25 (37.6 %)     26 (11.3 %)     27 (12.5 %)
        28 (22.4 %)     29 (1.6 %)      30 (3.1 %)      31 (100.0 %)
        32 (2.5 %)      33 (2.9 %)      34 (2.3 %)      35 (13.1 %)
        36 (7.9 %)      37 (28.3 %)     38 (54.5 %)     39 (65.1 %)
        40 (5.8 %)      41 (12.3 %)     42 (2.3 %)      43 (100.0 %)
        44 (20.7 %)     45 (22.0 %)     46 (2.9 %)      47 (4.4 %)
        Total: 1228.5%
Initial condition solution time: CPU = 3.406 ms, elapsed = 3.46303 ms.
Intrinsic tran analysis time:    CPU = 516.049 ms, elapsed = 521.006 ms.
Total time required for tran analysis `tran': CPU = 521.324 ms, elapsed = 526.961 ms, util. = 98.9%.
Time accumulated: CPU = 4.57268 s, elapsed = 5.32177 s.
Peak resident memory used = 214 Mbytes.


Notice from spectre during transient analysis `tran', during Monte Carlo analysis `mc1'.
    34 warnings suppressed.

finalTimeOP: writing operating point information to rawfile.

Opening the PSF file ../psf/mc1_separate/006/finalTimeOP.info ...
modelParameter: writing model parameter values to rawfile.

Opening the PSF file ../psf/mc1_separate/006/modelParameter.info ...
element: writing instance parameter values to rawfile.

Opening the PSF file ../psf/mc1_separate/006/element.info ...
outputParameter: writing output parameter values to rawfile.

Opening the PSF file ../psf/mc1_separate/006/outputParameter.info ...
designParamVals: writing netlist parameters to rawfile.

Opening the PSFASCII file ../psf/mc1_separate/006/designParamVals.info ...
primitives: writing primitives to rawfile.

Opening the PSFASCII file ../psf/mc1_separate/006/primitives.info.primitives ...
subckts: writing subcircuits to rawfile.

Opening the PSFASCII file ../psf/mc1_separate/006/subckts.info.subckts ...
    mc1: iteration = 6           (10.2 %), step = 1            (2.04 %)
7  12.24% 

*****************************************************************************************
* 
* INFO: AMS_processOption = C35B4C3
* 
* INFO: Valid Modules  PIP VG5 HIRES
* 
*****************************************************************************************


******************
DC Analysis `dcOp'
******************

Opening the PSF file ../psf/mc1_separate/007/dcOp.dc ...
Important parameter values:
    reltol = 100e-06
    abstol(V) = 1 uV
    abstol(I) = 1 pA
    temp = -40 C
    tnom = 27 C
    tempeffects = all
    gmindc = 1 pS
    rabsshort = 1 mOhm

Notice from spectre during DC analysis `dcOp', during Monte Carlo analysis `mc1'.
    GminDC = 1 pS is large enough to noticeably affect the DC solution.
        dV(vout) = -224.128 uV
        Use the `gmin_check' option to eliminate or expand this report.
    Bad pivoting is found during DC analysis. Option dc_pivot_check=yes is recommended for possible improvement of convergence.


Maximum value achieved for any signal of each quantity: 
V: V(S<0>) = 3.3 V
I: I(V0:p) = 6.639 uA
Maximum value of each quantity, excluding Verilog-A modules or dangling current sources:
V: V(vout_filt) = 1.601 V
I: I(V0:p) = 6.639 uA

Warning from spectre during check, during DC analysis `dcOp', during Monte Carlo analysis `mc1'.
    WARNING (CMI-2943): Parameter checks have been ignored because the valid value for parameter 'trise' could not be found in 'C1'.
    WARNING (CMI-2943): Parameter checks have been ignored because the valid value for parameter 'trise' could not be found in 'I0.R2.CM'.
    WARNING (CMI-2943): Parameter checks have been ignored because the valid value for parameter 'trise' could not be found in 'I0.R2.CS1'.
    WARNING (CMI-2943): Parameter checks have been ignored because the valid value for parameter 'trise' could not be found in 'I0.R2.CS0'.
    WARNING (CMI-2943): Parameter checks have been ignored because the valid value for parameter 'trise' could not be found in 'I0.C8<3>.C1'.
        Further occurrences of this warning will be suppressed.

Convergence achieved in 21 iterations.
DC simulation time: CPU = 5.788 ms, elapsed = 7.13181 ms.
Total time required for dc analysis `dcOp': CPU = 6.25 ms, elapsed = 7.59292 ms, util. = 82.3%.
Time accumulated: CPU = 4.61715 s, elapsed = 5.37657 s.
Peak resident memory used = 214 Mbytes.


Notice from spectre during Monte Carlo analysis `mc1'.
    34 warnings suppressed.

dcOpInfo: writing operating point information to rawfile.

Opening the PSF file ../psf/mc1_separate/007/dcOpInfo.info ...

************************************************
Transient Analysis `tran': time = (0 s -> 40 ms)
************************************************

Opening the PSF file ../psf/mc1_separate/007/tran.tran.tran ...

Notice from spectre during IC analysis, during transient analysis `tran', during Monte Carlo analysis `mc1'.
    GminDC = 1 pS is large enough to noticeably affect the DC solution.
        dV(vout) = -224.128 uV
        Use the `gmin_check' option to eliminate or expand this report.
    Bad pivoting is found during DC analysis. Option dc_pivot_check=yes is recommended for possible improvement of convergence.
Warning from spectre during check, during IC analysis, during transient analysis `tran', during Monte Carlo analysis `mc1'.
    WARNING (CMI-2943): Parameter checks have been ignored because the valid value for parameter 'trise' could not be found in 'C1'.
[...]
element: writing instance parameter values to rawfile.

Opening the PSF file ../psf/mc1_separate/048/element.info ...
outputParameter: writing output parameter values to rawfile.

Opening the PSF file ../psf/mc1_separate/048/outputParameter.info ...
designParamVals: writing netlist parameters to rawfile.

Opening the PSFASCII file ../psf/mc1_separate/048/designParamVals.info ...
primitives: writing primitives to rawfile.

Opening the PSFASCII file ../psf/mc1_separate/048/primitives.info.primitives ...
subckts: writing subcircuits to rawfile.

Opening the PSFASCII file ../psf/mc1_separate/048/subckts.info.subckts ...
    mc1: iteration = 48          (95.9 %), step = 1            (2.04 %)
49  97.96% 

*****************************************************************************************
* 
* INFO: AMS_processOption = C35B4C3
* 
* INFO: Valid Modules  PIP VG5 HIRES
* 
*****************************************************************************************


******************
DC Analysis `dcOp'
******************

Opening the PSF file ../psf/mc1_separate/049/dcOp.dc ...
Important parameter values:
    reltol = 100e-06
    abstol(V) = 1 uV
    abstol(I) = 1 pA
    temp = -40 C
    tnom = 27 C
    tempeffects = all
    gmindc = 1 pS
    rabsshort = 1 mOhm

Notice from spectre during DC analysis `dcOp', during Monte Carlo analysis `mc1'.
    GminDC = 1 pS is large enough to noticeably affect the DC solution.
        dV(vout) = -224.009 uV
        Use the `gmin_check' option to eliminate or expand this report.
    Bad pivoting is found during DC analysis. Option dc_pivot_check=yes is recommended for possible improvement of convergence.


Maximum value achieved for any signal of each quantity: 
V: V(S<0>) = 3.3 V
I: I(V0:p) = 6.496 uA
Maximum value of each quantity, excluding Verilog-A modules or dangling current sources:
V: V(vout_filt) = 1.6 V
I: I(V0:p) = 6.496 uA

Warning from spectre during check, during DC analysis `dcOp', during Monte Carlo analysis `mc1'.
    WARNING (CMI-2943): Parameter checks have been ignored because the valid value for parameter 'trise' could not be found in 'C1'.
    WARNING (CMI-2943): Parameter checks have been ignored because the valid value for parameter 'trise' could not be found in 'I0.R2.CM'.
    WARNING (CMI-2943): Parameter checks have been ignored because the valid value for parameter 'trise' could not be found in 'I0.R2.CS1'.
    WARNING (CMI-2943): Parameter checks have been ignored because the valid value for parameter 'trise' could not be found in 'I0.R2.CS0'.
    WARNING (CMI-2943): Parameter checks have been ignored because the valid value for parameter 'trise' could not be found in 'I0.C8<3>.C1'.
        Further occurrences of this warning will be suppressed.

Convergence achieved in 19 iterations.
DC simulation time: CPU = 4.939 ms, elapsed = 5.83315 ms.
Total time required for dc analysis `dcOp': CPU = 5.384 ms, elapsed = 6.2809 ms, util. = 85.7%.
Time accumulated: CPU = 27.1732 s, elapsed = 28.5597 s.
Peak resident memory used = 215 Mbytes.


Notice from spectre during Monte Carlo analysis `mc1'.
    34 warnings suppressed.

dcOpInfo: writing operating point information to rawfile.

Opening the PSF file ../psf/mc1_separate/049/dcOpInfo.info ...

************************************************
Transient Analysis `tran': time = (0 s -> 40 ms)
************************************************

Opening the PSF file ../psf/mc1_separate/049/tran.tran.tran ...

Notice from spectre during IC analysis, during transient analysis `tran', during Monte Carlo analysis `mc1'.
    GminDC = 1 pS is large enough to noticeably affect the DC solution.
        dV(vout) = -224.009 uV
        Use the `gmin_check' option to eliminate or expand this report.
    Bad pivoting is found during DC analysis. Option dc_pivot_check=yes is recommended for possible improvement of convergence.
Warning from spectre during check, during IC analysis, during transient analysis `tran', during Monte Carlo analysis `mc1'.
    WARNING (CMI-2943): Parameter checks have been ignored because the valid value for parameter 'trise' could not be found in 'C1'.
    WARNING (CMI-2943): Parameter checks have been ignored because the valid value for parameter 'trise' could not be found in 'I0.R2.CM'.
    WARNING (CMI-2943): Parameter checks have been ignored because the valid value for parameter 'trise' could not be found in 'I0.R2.CS1'.
    WARNING (CMI-2943): Parameter checks have been ignored because the valid value for parameter 'trise' could not be found in 'I0.R2.CS0'.
    WARNING (CMI-2943): Parameter checks have been ignored because the valid value for parameter 'trise' could not be found in 'I0.C8<3>.C1'.
        Further occurrences of this warning will be suppressed.

Convergence achieved in 19 iterations.
DC simulation time: CPU = 2.553 ms, elapsed = 2.55299 ms.
Important parameter values:
    start = 0 s
    outputstart = 0 s
    stop = 40 ms
    step = 40 us
    maxstep = 400 us
    ic = all
    useprevic = no
    skipdc = no
    reltol = 10e-06
    abstol(V) = 1 uV
    abstol(I) = 1 pA
    temp = -40 C
    tnom = 27 C
    tempeffects = all
    errpreset = conservative
    method = gear2only
    lteratio = 10
    relref = alllocal
    cmin = 0 F
    gmin = 1 pS
    rabsshort = 1 mOhm


Notice from spectre during transient analysis `tran', during Monte Carlo analysis `mc1'.
    Multithreading is disabled due to the size of the design being too small.


Output and IC/nodeset summary:
                 save   8       (current)
                 save   87      (voltage)

    tran: time = 1.022 ms    (2.55 %), step = 48.37 us     (121 m%)
    tran: time = 3.035 ms    (7.59 %), step = 47.34 us     (118 m%)
    tran: time = 5.003 ms    (12.5 %), step = 50 us        (125 m%)
    tran: time = 7.016 ms    (17.5 %), step = 48.88 us     (122 m%)
    tran: time = 9.03 ms     (22.6 %), step = 47.74 us     (119 m%)
    tran: time = 11.04 ms    (27.6 %), step = 46.86 us     (117 m%)
    tran: time = 13.01 ms    (32.5 %), step = 49.41 us     (124 m%)
    tran: time = 15.02 ms    (37.6 %), step = 48.2 us      (121 m%)
    tran: time = 17.04 ms    (42.6 %), step = 47.21 us     (118 m%)
    tran: time = 19 ms       (47.5 %), step = 50 us        (125 m%)
    tran: time = 21.02 ms    (52.5 %), step = 48.69 us     (122 m%)
    tran: time = 23.03 ms    (57.6 %), step = 47.59 us     (119 m%)
    tran: time = 25.05 ms    (62.6 %), step = 46.74 us     (117 m%)
    tran: time = 27.01 ms    (67.5 %), step = 49.22 us     (123 m%)
    tran: time = 29.03 ms    (72.6 %), step = 48.03 us     (120 m%)
    tran: time = 31.04 ms    (77.6 %), step = 47.08 us     (118 m%)
    tran: time = 33.01 ms    (82.5 %), step = 49.8 us      (125 m%)
    tran: time = 35.02 ms    (87.5 %), step = 48.52 us     (121 m%)
    tran: time = 37.03 ms    (92.6 %), step = 47.46 us     (119 m%)
    tran: time = 39 ms       (97.5 %), step = 50 us        (125 m%)
Number of accepted tran steps =             851

Maximum value achieved for any signal of each quantity: 
V: V(S<0>) = 3.3 V
I: I(V0:p) = 6.496 uA
Maximum value of each quantity, excluding Verilog-A modules or dangling current sources:
V: V(vout_filt) = 1.614 V
I: I(V0:p) = 6.496 uA

~~~~~~~~~~~~~~~~~~~~~~~~~~~~~~~~~
Post-Transient Simulation Summary
~~~~~~~~~~~~~~~~~~~~~~~~~~~~~~~~~
   -   To further speed up simulation, consider
          add ++aps on command line
   -   Non-default settings that could significantly slow down simulation
          errpreset = conservative, default moderate
          reltol = 10e-06, default 100e-06 (conservative)
~~~~~~~~~~~~~~~~~~~~~~~~~~~~~~~~~


During simulation, the CPU load for active processors is :
         0 (62.7 %)      1 (20.2 %)      2 (12.5 %)      3 (28.8 %)
         4 (10.6 %)      5 (47.9 %)      6 (46.9 %)      7 (9.9 %)
         8 (16.8 %)      9 (24.7 %)     10 (13.5 %)     11 (18.5 %)
        12 (16.7 %)     13 (21.0 %)     14 (22.1 %)     15 (19.7 %)
        16 (35.6 %)     17 (85.4 %)     18 (32.0 %)     19 (27.9 %)
        20 (31.5 %)     21 (9.9 %)      22 (15.8 %)     23 (13.9 %)
        24 (18.4 %)     25 (22.5 %)     26 (6.6 %)      27 (7.6 %)
        28 (25.7 %)     29 (17.1 %)     30 (7.2 %)      31 (100.0 %)
        32 (6.2 %)      33 (14.8 %)     34 (59.8 %)     35 (9.0 %)
        36 (16.4 %)     37 (43.1 %)     38 (26.5 %)     39 (30.3 %)
        40 (40.7 %)     41 (26.0 %)     42 (9.1 %)      43 (24.2 %)
        44 (15.9 %)     45 (84.4 %)     46 (18.6 %)     47 (46.1 %)
        Total: 1320.9%
Initial condition solution time: CPU = 2.581 ms, elapsed = 2.58303 ms.
Intrinsic tran analysis time:    CPU = 455.805 ms, elapsed = 457.024 ms.
Total time required for tran analysis `tran': CPU = 459.979 ms, elapsed = 461.726 ms, util. = 99.6%.
Time accumulated: CPU = 27.6391 s, elapsed = 29.0293 s.
Peak resident memory used = 215 Mbytes.


Notice from spectre during transient analysis `tran', during Monte Carlo analysis `mc1'.
    34 warnings suppressed.

finalTimeOP: writing operating point information to rawfile.

Opening the PSF file ../psf/mc1_separate/049/finalTimeOP.info ...
modelParameter: writing model parameter values to rawfile.

Opening the PSF file ../psf/mc1_separate/049/modelParameter.info ...
element: writing instance parameter values to rawfile.

Opening the PSF file ../psf/mc1_separate/049/element.info ...
outputParameter: writing output parameter values to rawfile.

Opening the PSF file ../psf/mc1_separate/049/outputParameter.info ...
designParamVals: writing netlist parameters to rawfile.

Opening the PSFASCII file ../psf/mc1_separate/049/designParamVals.info ...
primitives: writing primitives to rawfile.

Opening the PSFASCII file ../psf/mc1_separate/049/primitives.info.primitives ...
subckts: writing subcircuits to rawfile.

Opening the PSFASCII file ../psf/mc1_separate/049/subckts.info.subckts ...
    mc1: iteration = 49            (98 %), step = 1            (2.04 %)
50 100.00% 

*****************************************************************************************
* 
* INFO: AMS_processOption = C35B4C3
* 
* INFO: Valid Modules  PIP VG5 HIRES
* 
*****************************************************************************************


******************
DC Analysis `dcOp'
******************

Opening the PSF file ../psf/mc1_separate/050/dcOp.dc ...
Important parameter values:
    reltol = 100e-06
    abstol(V) = 1 uV
    abstol(I) = 1 pA
    temp = -40 C
    tnom = 27 C
    tempeffects = all
    gmindc = 1 pS
    rabsshort = 1 mOhm

Notice from spectre during DC analysis `dcOp', during Monte Carlo analysis `mc1'.
    GminDC = 1 pS is large enough to noticeably affect the DC solution.
        dV(vout) = -224.088 uV
        Use the `gmin_check' option to eliminate or expand this report.
    Bad pivoting is found during DC analysis. Option dc_pivot_check=yes is recommended for possible improvement of convergence.


Maximum value achieved for any signal of each quantity: 
V: V(S<0>) = 3.3 V
I: I(V0:p) = 6.431 uA
Maximum value of each quantity, excluding Verilog-A modules or dangling current sources:
V: V(vout_filt) = 1.601 V
I: I(V0:p) = 6.431 uA

Warning from spectre during check, during DC analysis `dcOp', during Monte Carlo analysis `mc1'.
    WARNING (CMI-2943): Parameter checks have been ignored because the valid value for parameter 'trise' could not be found in 'C1'.
    WARNING (CMI-2943): Parameter checks have been ignored because the valid value for parameter 'trise' could not be found in 'I0.R2.CM'.
    WARNING (CMI-2943): Parameter checks have been ignored because the valid value for parameter 'trise' could not be found in 'I0.R2.CS1'.
    WARNING (CMI-2943): Parameter checks have been ignored because the valid value for parameter 'trise' could not be found in 'I0.R2.CS0'.
    WARNING (CMI-2943): Parameter checks have been ignored because the valid value for parameter 'trise' could not be found in 'I0.C8<3>.C1'.
        Further occurrences of this warning will be suppressed.

Convergence achieved in 18 iterations.
DC simulation time: CPU = 4.812 ms, elapsed = 5.84817 ms.
Total time required for dc analysis `dcOp': CPU = 5.226 ms, elapsed = 6.26206 ms, util. = 83.5%.
Time accumulated: CPU = 27.679 s, elapsed = 29.0788 s.
Peak resident memory used = 215 Mbytes.


Notice from spectre during Monte Carlo analysis `mc1'.
    34 warnings suppressed.

dcOpInfo: writing operating point information to rawfile.

Opening the PSF file ../psf/mc1_separate/050/dcOpInfo.info ...

************************************************
Transient Analysis `tran': time = (0 s -> 40 ms)
************************************************

Opening the PSF file ../psf/mc1_separate/050/tran.tran.tran ...

Notice from spectre during IC analysis, during transient analysis `tran', during Monte Carlo analysis `mc1'.
    GminDC = 1 pS is large enough to noticeably affect the DC solution.
        dV(vout) = -224.088 uV
        Use the `gmin_check' option to eliminate or expand this report.
    Bad pivoting is found during DC analysis. Option dc_pivot_check=yes is recommended for possible improvement of convergence.
Warning from spectre during check, during IC analysis, during transient analysis `tran', during Monte Carlo analysis `mc1'.
    WARNING (CMI-2943): Parameter checks have been ignored because the valid value for parameter 'trise' could not be found in 'C1'.
    WARNING (CMI-2943): Parameter checks have been ignored because the valid value for parameter 'trise' could not be found in 'I0.R2.CM'.
    WARNING (CMI-2943): Parameter checks have been ignored because the valid value for parameter 'trise' could not be found in 'I0.R2.CS1'.
    WARNING (CMI-2943): Parameter checks have been ignored because the valid value for parameter 'trise' could not be found in 'I0.R2.CS0'.
    WARNING (CMI-2943): Parameter checks have been ignored because the valid value for parameter 'trise' could not be found in 'I0.C8<3>.C1'.
        Further occurrences of this warning will be suppressed.

Convergence achieved in 18 iterations.
DC simulation time: CPU = 2.515 ms, elapsed = 2.51603 ms.
Important parameter values:
    start = 0 s
    outputstart = 0 s
    stop = 40 ms
    step = 40 us
    maxstep = 400 us
    ic = all
    useprevic = no
    skipdc = no
    reltol = 10e-06
    abstol(V) = 1 uV
    abstol(I) = 1 pA
    temp = -40 C
    tnom = 27 C
    tempeffects = all
    errpreset = conservative
    method = gear2only
    lteratio = 10
    relref = alllocal
    cmin = 0 F
    gmin = 1 pS
    rabsshort = 1 mOhm


Notice from spectre during transient analysis `tran', during Monte Carlo analysis `mc1'.
    Multithreading is disabled due to the size of the design being too small.


Output and IC/nodeset summary:
                 save   8       (current)
                 save   87      (voltage)

    tran: time = 1.022 ms    (2.55 %), step = 48.37 us     (121 m%)
    tran: time = 3.036 ms    (7.59 %), step = 47.33 us     (118 m%)
    tran: time = 5.003 ms    (12.5 %), step = 50 us        (125 m%)
    tran: time = 7.017 ms    (17.5 %), step = 48.83 us     (122 m%)
    tran: time = 9.031 ms    (22.6 %), step = 47.69 us     (119 m%)
    tran: time = 11.04 ms    (27.6 %), step = 46.81 us     (117 m%)
    tran: time = 13.01 ms    (32.5 %), step = 49.31 us     (123 m%)
    tran: time = 15.03 ms    (37.6 %), step = 48.1 us      (120 m%)
    tran: time = 17.04 ms    (42.6 %), step = 47.12 us     (118 m%)
    tran: time = 19.01 ms    (47.5 %), step = 49.85 us     (125 m%)
    tran: time = 21.02 ms    (52.5 %), step = 48.54 us     (121 m%)
    tran: time = 23.03 ms    (57.6 %), step = 47.47 us     (119 m%)
    tran: time = 25 ms       (62.5 %), step = 50 us        (125 m%)
    tran: time = 27.01 ms    (67.5 %), step = 49.02 us     (123 m%)
    tran: time = 29.03 ms    (72.6 %), step = 47.85 us     (120 m%)
    tran: time = 31.04 ms    (77.6 %), step = 46.93 us     (117 m%)
    tran: time = 33.01 ms    (82.5 %), step = 49.52 us     (124 m%)
    tran: time = 35.02 ms    (87.6 %), step = 48.27 us     (121 m%)
    tran: time = 37.04 ms    (92.6 %), step = 47.26 us     (118 m%)
    tran: time = 39 ms       (97.5 %), step = 50 us        (125 m%)
Number of accepted tran steps =             851

Maximum value achieved for any signal of each quantity: 
V: V(S<0>) = 3.3 V
I: I(V0:p) = 6.431 uA
Maximum value of each quantity, excluding Verilog-A modules or dangling current sources:
V: V(vout_filt) = 1.614 V
I: I(V0:p) = 6.431 uA

~~~~~~~~~~~~~~~~~~~~~~~~~~~~~~~~~
Post-Transient Simulation Summary
~~~~~~~~~~~~~~~~~~~~~~~~~~~~~~~~~
   -   To further speed up simulation, consider
          add ++aps on command line
   -   Non-default settings that could significantly slow down simulation
          errpreset = conservative, default moderate
          reltol = 10e-06, default 100e-06 (conservative)
~~~~~~~~~~~~~~~~~~~~~~~~~~~~~~~~~


During simulation, the CPU load for active processors is :
         0 (63.4 %)      1 (20.0 %)      2 (12.5 %)      3 (30.0 %)
         4 (10.6 %)      5 (47.2 %)      6 (46.3 %)      7 (9.9 %)
         8 (16.5 %)      9 (24.3 %)     10 (13.3 %)     11 (18.4 %)
        12 (16.7 %)     13 (20.8 %)     14 (21.7 %)     15 (19.9 %)
        16 (35.0 %)     17 (84.5 %)     18 (33.0 %)     19 (28.6 %)
        20 (32.3 %)     21 (9.8 %)      22 (15.6 %)     23 (13.8 %)
        24 (19.8 %)     25 (22.2 %)     26 (6.7 %)      27 (7.5 %)
        28 (25.3 %)     29 (16.9 %)     30 (7.1 %)      31 (100.0 %)
        32 (6.1 %)      33 (15.3 %)     34 (58.8 %)     35 (8.9 %)
        36 (16.2 %)     37 (42.3 %)     38 (26.1 %)     39 (31.5 %)
        40 (40.0 %)     41 (25.8 %)     42 (10.7 %)     43 (23.8 %)
        44 (15.7 %)     45 (84.7 %)     46 (19.0 %)     47 (46.3 %)
        Total: 1320.6%
Initial condition solution time: CPU = 2.543 ms, elapsed = 2.54583 ms.
Intrinsic tran analysis time:    CPU = 457.23 ms, elapsed = 458.394 ms.
Total time required for tran analysis `tran': CPU = 461.473 ms, elapsed = 463.206 ms, util. = 99.6%.
Time accumulated: CPU = 28.1466 s, elapsed = 29.5505 s.
Peak resident memory used = 215 Mbytes.


Notice from spectre during transient analysis `tran', during Monte Carlo analysis `mc1'.
    34 warnings suppressed.

finalTimeOP: writing operating point information to rawfile.

Opening the PSF file ../psf/mc1_separate/050/finalTimeOP.info ...
modelParameter: writing model parameter values to rawfile.

Opening the PSF file ../psf/mc1_separate/050/modelParameter.info ...
element: writing instance parameter values to rawfile.

Opening the PSF file ../psf/mc1_separate/050/element.info ...
outputParameter: writing output parameter values to rawfile.

Opening the PSF file ../psf/mc1_separate/050/outputParameter.info ...
designParamVals: writing netlist parameters to rawfile.

Opening the PSFASCII file ../psf/mc1_separate/050/designParamVals.info ...
primitives: writing primitives to rawfile.

Opening the PSFASCII file ../psf/mc1_separate/050/primitives.info.primitives ...
subckts: writing subcircuits to rawfile.

Opening the PSFASCII file ../psf/mc1_separate/050/subckts.info.subckts ...
    mc1: iteration = 50           (100 %), step = 1            (2.04 %)
Total time required for montecarlo analysis `mc1': CPU = 27.7082 s, elapsed = 28.5242 s, util. = 97.1%.
Time accumulated: CPU = 28.1706 s, elapsed = 29.5865 s.
Peak resident memory used = 215 Mbytes.

Licensing Information:
Lic Summary:
[09:10:55.065488] Cdslmd servers:3000@lic08.ug.kth.se:29000@lic06.ug.kth.se
[09:10:55.065520] Feature usage summary:
[09:10:55.065521] Virtuoso_Multi_mode_Simulation


Aggregate audit (9:10:55 AM, Thur Apr 16, 2026):
Time used: CPU = 28.2 s, elapsed = 29.6 s, util. = 95.2%.
Time spent in licensing: elapsed = 53 ms.
Peak memory used = 215 Mbytes.
Simulation started at: 9:10:25 AM, Thur Apr 16, 2026, ended at: 9:10:55 AM, Thur Apr 16, 2026, with elapsed time (wall clock): 29.6 s.
spectre completes with 0 errors, 527 warnings, and 364 notices.
