
Spectre (R) Circuit Simulator
Version 24.1.0.288.isr5 64bit -- 3 Apr 2025
Copyright (C) 1989-2025 Cadence Design Systems, Inc. All rights reserved worldwide. Cadence and Spectre are registered trademarks of Cadence Design Systems, Inc. All others are the property of their respective holders.

Includes RSA BSAFE(R) Cryptographic or Security Protocol Software from RSA Security, Inc.

User: davidevi   Host: il2244vt26_davidevi   HostID: 11AC2C00   PID: 1019467
Memory  available: 3.0332 TB  physical: 3.2467 TB
Linux   : Rocky Linux release 8.10 (Green Obsidian)
CPU Type: Intel(R) Xeon(R) CPU E7-8857 v2 @ 3.00GHz
        Socket: Processors [Frequency]
        0:       0 [3000.0],  1 [1200.0],  2 [2500.0],  3 [3400.0],  4 [2999.9]
                 5 [3600.0],  6 [3000.0],  7 [2600.0],  8 [2999.9],  9 [2800.0]
                10 [1200.0], 11 [2900.0]
        1:      12 [3600.0], 13 [3600.0], 14 [3600.0], 15 [3600.0], 16 [3600.0]
                17 [3100.0], 18 [3600.0], 19 [3600.0], 20 [2999.9], 21 [1500.0]
                22 [3600.0], 23 [3600.0]
        2:      24 [2999.9], 25 [1200.0], 26 [3600.0], 27 [1200.0], 28 [1200.0]
                29 [3600.0], 30 [1200.0], 31 [2999.9], 32 [1200.0], 33 [1200.0]
                34 [2700.0], 35 [2800.0]
        3:      36 [1200.0], 37 [2851.9], 38 [1200.0], 39 [1200.0], 40 [3600.0]
                41 [3600.0], 42 [3600.0], 43 [3600.0], 44 [1200.0], 45 [1200.0]
                46 [1200.0], 47 [3600.0]
        
System load averages (1min, 5min, 15min) : 19.2 %, 21.0 %, 23.8 %
HPC is enabled


Simulating `input.scs' on il2244vt26_davidevi at 4:46:04 PM, Wed Apr 15, 2026 (process id: 1019467).
Current working directory: /home/davidevi/Desktop/myproject/Sim/VGA/VGA_1_wakeup_tb/adexl/results/data/MonteCarlo.0/3/wakeup/groupRunDataDir/netlist
Command line:
    /opt/tools/cadence/installs/SPECTRE241/tools/bin/spectre -64  \
        input.scs +escchars +log ../psf/spectre.out -format psfbin  \
        +rtsf -raw ../psf +aps +mt +lqtimeout 900 -maxw 5 -maxn 5  \
        +param /opt/pdk/ams/410/spectre/ams_range.lmts -env ade  \
        -ahdllibdir  \
        /home/davidevi/Desktop/myproject/Sim/VGA/VGA_1_wakeup_tb/adexl/results/data/MonteCarlo.0/sharedData/Job456/ahdl/input.ahdlSimDB  \
        +logstatus  \
        +adespetkn=0001089D13A302B663E41FB550AF0DF415A679A322D5069144BF588C12F604E07EF416DC01A319B562BB63D344EF02A645A302B13F9B12E677AD6AD175DB4F927FC079D15D9175FF34986BDD0AF002BA50FD7FD707E002A700AC1C801BFD45E00EAD79D128F874D3349879D118F874D33498100ED833B4185D470000367A

Simulation Id: vuAV8UC5f5VbXXKX
Licensing Information:
[16:46:05.121778] Configured Lic search path (24.01-s002): 3000@lic08.ug.kth.se:29000@lic06.ug.kth.se

Licensing Information:
[16:46:05.151995] Periodic Lic check successful

Loading /opt/tools/cadence/installs/SPECTRE241/tools.lnx86/cmi/lib/64bit/5.0/libinfineon_sh.so ...
Loading /opt/tools/cadence/installs/SPECTRE241/tools.lnx86/cmi/lib/64bit/5.0/libphilips_I_sh.so ...
Loading /opt/tools/cadence/installs/SPECTRE241/tools.lnx86/cmi/lib/64bit/5.0/libphilips_sh.so ...
Loading /opt/tools/cadence/installs/SPECTRE241/tools.lnx86/cmi/lib/64bit/5.0/libsparam_sh.so ...
Loading /opt/tools/cadence/installs/SPECTRE241/tools.lnx86/cmi/lib/64bit/5.0/libstmodels_sh.so ...

Warning from spectre.
    WARNING (SPECTRE-691): This CPU processor does not support x86 advanced vector extensions instructions. This may affect math operations and slow down the simulation.

Reading file:  /home/davidevi/Desktop/myproject/Sim/VGA/VGA_1_wakeup_tb/adexl/results/data/MonteCarlo.0/3/wakeup/groupRunDataDir/netlist/input.scs
Reading file:  /opt/pdk/ams/410/spectre/ams_range.lmts

Warning from spectre during read of parameter soft limits file `/opt/pdk/ams/410/spectre/ams_range.lmts', during circuit read-in.
    WARNING (SPECTRE-8360): line 1511: `ac' is an undefined primitive device.
    WARNING (SPECTRE-8360): line 1512: `ac' is an undefined primitive device.
    WARNING (SPECTRE-8360): line 1513: `ac' is an undefined primitive device.
    WARNING (SPECTRE-8360): line 1514: `ac' is an undefined primitive device.
    WARNING (SPECTRE-8360): line 1515: `ac' is an undefined primitive device.
        Further occurrences of this warning will be suppressed.

Reading file:  /opt/tools/cadence/installs/SPECTRE241/tools.lnx86/spectre/etc/configs/spectre.cfg
Reading file:  /opt/pdk/ams/410/spectre/c35/soac/soac.scs
Reading file:  /opt/pdk/ams/410/spectre/c35/soac/processOption.scs
Reading file:  /opt/pdk/ams/410/spectre/c35/soac/process.scs
Reading file:  /opt/pdk/ams/410/spectre/c35/soac/soac.va

Warning from spectre during AHDL read-in.
    WARNING (VACOMP-2435): The environment variable CDS_AHDLCMI_ENABLE is no longer supported. Therefore, the simulator will use the default compiled C code flow.

Reading link:  /opt/tools/cadence/installs/SPECTRE241/tools.lnx86/spectre/etc/ahdl/constants.h
Reading file:  /opt/tools/cadence/installs/SPECTRE241/tools.lnx86/spectre/etc/ahdl/constants.vams
Reading link:  /opt/tools/cadence/installs/SPECTRE241/tools.lnx86/spectre/etc/ahdl/discipline.h
Reading file:  /opt/tools/cadence/installs/SPECTRE241/tools.lnx86/spectre/etc/ahdl/disciplines.vams
Reading file:  /opt/pdk/ams/410/spectre/c35/processOption/C35B4C3.scs
Reading file:  /opt/pdk/ams/410/spectre/c35/soac/cmos53.scs
Reading file:  /opt/pdk/ams/410/spectre/c35/soac/res.scs
Reading file:  /opt/pdk/ams/410/spectre/c35/soac/cap.scs
Reading file:  /opt/pdk/ams/410/spectre/c35/soac/bip.scs
Reading file:  /opt/pdk/ams/410/spectre/c35/soac/ind.scs
Reading file:  /opt/pdk/ams/410/spectre/c35/soac/esddiode.scs
Time for NDB Parsing: CPU = 186.258 ms, elapsed = 478.502 ms.
Time accumulated: CPU = 395.218 ms, elapsed = 478.505 ms.
Peak resident memory used = 175 Mbytes.

Existing shared object for module modn_ahdl is up to date.
Installed compiled interface for modn_ahdl.
Existing shared object for module modp_ahdl is up to date.
Installed compiled interface for modp_ahdl.
Existing shared object for module cpoly_ahdl is up to date.
Installed compiled interface for cpoly_ahdl.
Existing shared object for module rpolyh_ahdl is up to date.
Installed compiled interface for rpolyh_ahdl.
Existing shared object for module bsource_19b458 is up to date.
Installed compiled interface for bsource_19b458.
Time for Elaboration: CPU = 62.17 ms, elapsed = 63.6759 ms.
Time accumulated: CPU = 457.537 ms, elapsed = 542.327 ms.
Peak resident memory used = 188 Mbytes.


Notice from spectre during hierarchy flattening.
    The value 'psf' specified for the 'checklimitdest' option will no longer be supported in future releases. Use 'spectre -h' to see other recommended values for the 'checklimitdest' option.


*****************************************************************************************
* 
* INFO: AMS_processOption = C35B4C3
* 
* INFO: Valid Modules  PIP VG5 HIRES
* 
*****************************************************************************************


Notice from spectre during hierarchy flattening.
    V8: `period' has the unusually large value of 100 s.


Time for EDB Visiting: CPU = 9.287 ms, elapsed = 9.28712 ms.
Time accumulated: CPU = 466.997 ms, elapsed = 551.785 ms.
Peak resident memory used = 191 Mbytes.

Loading /opt/tools/cadence/installs/SPECTRE241/tools.lnx86/mdl/lib/64bit/libSpectreEH_sh.so ...

Warning from spectre during initial setup.
    WARNING (SPECTRE-16460): SOAC_cvarm_vspsub:Specified subcircuit master `cvarm' was not found.
    WARNING (SPECTRE-16462): SOAC_cvarm_vspsub:Error in specification of subcircuit master. Assert is ignored.
    WARNING (SPECTRE-16460): SOAC_cvarm_vbs:Specified subcircuit master `cvarm' was not found.
    WARNING (SPECTRE-16462): SOAC_cvarm_vbs:Error in specification of subcircuit master. Assert is ignored.
    WARNING (SPECTRE-16460): SOAC_cvarm_vgb:Specified subcircuit master `cvarm' was not found.
    WARNING (SPECTRE-16462): SOAC_cvarm_vgb:Error in specification of subcircuit master. Assert is ignored.
    WARNING (SPECTRE-16460): SOAC_cvart_vspsub:Specified subcircuit master `cvart' was not found.
    WARNING (SPECTRE-16462): SOAC_cvart_vspsub:Error in specification of subcircuit master. Assert is ignored.
    WARNING (SPECTRE-16460): SOAC_cvart_vbs:Specified subcircuit master `cvart' was not found.
        Further occurrences of this warning will be suppressed.
    WARNING (SPECTRE-16462): SOAC_cvart_vbs:Error in specification of subcircuit master. Assert is ignored.
        Further occurrences of this warning will be suppressed.
Notice from spectre during topology check.
    Only one connection to the following 54 nodes:
        I0.MN6.psub!
        I0.MN5.psub!
        I0.MN4.psub!
        I0.MN3.psub!
        I0.MN2.psub!
        Further occurrences of this notice will be suppressed.
Notice from spectre during initial setup.
    Multithreading is disabled due to the size of the design being too small.


Netlist title:
        // Point Netlist Generated on: Apr 15 16:46:04 2026


Global user options:
         psfversion = 1.4.0
            vabstol = 1e-06
            iabstol = 1e-12
               temp = 85
           homotopy = 5
              limit = delta
         compatible = spice2
               gmin = 1e-12
             rforce = 1
           maxnotes = 5
           maxwarns = 5
             digits = 5
               cols = 80
             pivrel = 0.001
           sensfile = ../psf/sens.output
     checklimitdest = psf
     enable_pre_ver = yes
      ignorezerovar = yes
               save = allpub
             reltol = 0.0001
               tnom = 27
             scalem = 1
              scale = 1

Scoped user options:

Circuit inventory:
              nodes 88
            bsim3v3 35    
     bsource_19b458 2     
          capacitor 38    
         cpoly_ahdl 17    
            isource 1     
          modn_ahdl 19    
          modp_ahdl 16    
           resistor 1     
        rpolyh_ahdl 2     
            vsource 8     

Analysis and control statement inventory:
               info 7     
         montecarlo 1     
               tran 1     

Output statements:
             .probe 0     
           .measure 0     
               save 0     

Design checks inventory:
          paramtest 55    
             assert 175   


Notice from spectre during initial setup.
    APS enabled.
    1 notice suppressed.
    72 warnings suppressed.

Time for parsing: CPU = 19.005 ms, elapsed = 680.15 ms.
Time accumulated: CPU = 486.113 ms, elapsed = 1.23205 s.
Peak resident memory used = 198 Mbytes.

~~~~~~~~~~~~~~~~~~~~~~
Pre-Simulation Summary
~~~~~~~~~~~~~~~~~~~~~~
   -   (APS) Multi-threading. The recommended number of threads is 1, consider adding +mt=1 on command line.
~~~~~~~~~~~~~~~~~~~~~~

**************************************************
Monte Carlo Analysis `mc1': iteration = (1 -> 100)
**************************************************
Important parameter values:
    seed = 12345
    sampling = lds
    variations = all
    firstrun = 1
    numruns = 100
    nullmfactorcorrelation = no
    donominal = yes
    method = standard

**** Performing nominal run for `mc1'

Notice from spectre during transient analysis `tran', during Monte Carlo analysis `mc1'.
    No checklimit analysis defined for asserts. A default checklimit analysis 'SpectreChecklimitAnal' has been created with all asserts enabled.


***********************************************
Transient Analysis `tran': time = (0 s -> 50 s)
***********************************************

Warning from spectre during check, during IC analysis, during transient analysis `tran', during Monte Carlo analysis `mc1'.
    WARNING (CMI-2943): Parameter checks have been ignored because the valid value for parameter 'trise' could not be found in 'C1'.
    WARNING (CMI-2943): Parameter checks have been ignored because the valid value for parameter 'trise' could not be found in 'I0.R2.CM'.
    WARNING (CMI-2943): Parameter checks have been ignored because the valid value for parameter 'trise' could not be found in 'I0.R2.CS1'.
    WARNING (CMI-2943): Parameter checks have been ignored because the valid value for parameter 'trise' could not be found in 'I0.R2.CS0'.
    WARNING (CMI-2943): Parameter checks have been ignored because the valid value for parameter 'trise' could not be found in 'I0.C3.C1'.
        Further occurrences of this warning will be suppressed.

Convergence achieved in 12 iterations.
DC simulation time: CPU = 2.999 ms, elapsed = 2.99907 ms.

Opening the PSF file ../psf/nom/tran.tran.tran ...
Important parameter values:
    start = 0 s
    outputstart = 0 s
    stop = 50 s
    step = 50 ms
    maxstep = 500 ms
    ic = all
    useprevic = no
    skipdc = no
    reltol = 10e-06
    abstol(V) = 1 uV
    abstol(I) = 1 pA
    temp = 85 C
    tnom = 27 C
    tempeffects = all
    errpreset = conservative
    method = gear2only
    lteratio = 10
    relref = alllocal
    cmin = 0 F
    gmin = 1 pS
    rabsshort = 1 mOhm


Notice from spectre during transient analysis `tran', during Monte Carlo analysis `mc1'.
    Multithreading is disabled due to the size of the design being too small.


Output and IC/nodeset summary:
                 save   8       (current)
                 save   87      (voltage)

    tran: time = 1.254 s     (2.51 %), step = 106.1 ms     (212 m%)
    tran: time = 4.092 s     (8.18 %), step = 354 ms       (708 m%)
    tran: time = 6.319 s     (12.6 %), step = 500 ms          (1 %)
    tran: time = 8.819 s     (17.6 %), step = 500 ms          (1 %)
    tran: time = 11.32 s     (22.6 %), step = 500 ms          (1 %)
    tran: time = 13.82 s     (27.6 %), step = 500 ms          (1 %)
    tran: time = 16.32 s     (32.6 %), step = 500 ms          (1 %)
    tran: time = 18.82 s     (37.6 %), step = 500 ms          (1 %)
    tran: time = 21.32 s     (42.6 %), step = 500 ms          (1 %)
    tran: time = 23.82 s     (47.6 %), step = 500 ms          (1 %)
    tran: time = 26.32 s     (52.6 %), step = 500 ms          (1 %)
    tran: time = 28.82 s     (57.6 %), step = 500 ms          (1 %)
    tran: time = 31.32 s     (62.6 %), step = 500 ms          (1 %)
    tran: time = 33.82 s     (67.6 %), step = 500 ms          (1 %)
    tran: time = 36.32 s     (72.6 %), step = 500 ms          (1 %)
    tran: time = 38.82 s     (77.6 %), step = 500 ms          (1 %)
    tran: time = 41.32 s     (82.6 %), step = 500 ms          (1 %)
    tran: time = 43.82 s     (87.6 %), step = 500 ms          (1 %)
    tran: time = 46.32 s     (92.6 %), step = 500 ms          (1 %)
    tran: time = 48.82 s     (97.6 %), step = 500 ms          (1 %)
Number of accepted tran steps =             730

Maximum value achieved for any signal of each quantity: 
V: V(S<0>) = 3.3 V
I: I(V8:p) = 6.441 uA

~~~~~~~~~~~~~~~~~~~~~~~~~~~~~~~~~
Post-Transient Simulation Summary
~~~~~~~~~~~~~~~~~~~~~~~~~~~~~~~~~
   -   To further speed up simulation, consider
          add ++aps on command line
   -   Non-default settings that could significantly slow down simulation
          errpreset = conservative, default moderate
          reltol = 10e-06, default 100e-06 (conservative)
~~~~~~~~~~~~~~~~~~~~~~~~~~~~~~~~~


During simulation, the CPU load for active processors is :
         0 (7.0 %)       1 (19.6 %)      2 (31.0 %)      3 (3.2 %)
         4 (100.0 %)     5 (3.8 %)       6 (32.3 %)      7 (4.5 %)
         8 (9.0 %)       9 (5.7 %)      10 (13.2 %)     11 (17.0 %)
        12 (5.1 %)      13 (33.8 %)     14 (3.2 %)      15 (17.2 %)
        16 (36.7 %)     17 (4.4 %)      18 (8.1 %)      19 (10.3 %)
        20 (100.0 %)    21 (3.2 %)      22 (2.5 %)      23 (6.3 %)
        24 (100.0 %)    25 (5.0 %)      26 (4.4 %)      27 (3.8 %)
        28 (6.3 %)      29 (6.3 %)      30 (32.7 %)     31 (98.1 %)
        32 (4.5 %)      33 (43.1 %)     34 (5.1 %)      35 (6.9 %)
        36 (48.1 %)     37 (9.6 %)      38 (3.2 %)      39 (11.4 %)
        40 (7.6 %)      41 (3.8 %)      42 (1.9 %)      43 (31.2 %)
        44 (2.5 %)      45 (23.1 %)     46 (5.0 %)      47 (4.4 %)
        Total: 945.3%
Initial condition solution time: CPU = 3.052 ms, elapsed = 3.0551 ms.
Intrinsic tran analysis time:    CPU = 446.447 ms, elapsed = 447.757 ms.
Total time required for tran analysis `tran': CPU = 538.497 ms, elapsed = 542.201 ms, util. = 99.3%.
Time accumulated: CPU = 1.05191 s, elapsed = 1.80276 s.
Peak resident memory used = 209 Mbytes.


Notice from spectre during transient analysis `tran', during Monte Carlo analysis `mc1'.
    34 warnings suppressed.

finalTimeOP: writing operating point information to rawfile.

Opening the PSF file ../psf/nom/finalTimeOP.info ...
modelParameter: writing model parameter values to rawfile.

Opening the PSF file ../psf/nom/modelParameter.info ...
element: writing instance parameter values to rawfile.

Opening the PSF file ../psf/nom/element.info ...
outputParameter: writing output parameter values to rawfile.

Opening the PSF file ../psf/nom/outputParameter.info ...
designParamVals: writing netlist parameters to rawfile.

Opening the PSFASCII file ../psf/nom/designParamVals.info ...
primitives: writing primitives to rawfile.

Opening the PSFASCII file ../psf/nom/primitives.info.primitives ...
subckts: writing subcircuits to rawfile.

Opening the PSFASCII file ../psf/nom/subckts.info.subckts ...
Opening iteration number and data-directory mapping file:  /home/davidevi/Desktop/myproject/Sim/VGA/VGA_1_wakeup_tb/adexl/results/data/MonteCarlo.0/3/wakeup/groupRunDataDir/netlist/../psf/mc1.mapping

Statistical parameters:
    Defined process parameters: 629
    Defined mismatch parameters (subckt based): 86
    Non-referenced mismatch parameters: 80
    Number of random variables: 718
    Gaussian truncation for process parameters: 4.00 sigma
    Gaussian truncation for mismatch parameters: 4.00 sigma


Opening the PSF file ../psf/mc1_tran.montecarlo ...

Opening the PSF file ../psf/mc1_finalTimeOP.montecarlo ...

Opening the PSF file ../psf/mc1_modelParameter.montecarlo ...

Opening the PSF file ../psf/mc1_element.montecarlo ...

Opening the PSF file ../psf/mc1_outputParameter.montecarlo ...

Opening the PSF file ../psf/mc1_designParamVals.montecarlo ...

Opening the PSF file ../psf/mc1_primitives.montecarlo ...

Opening the PSF file ../psf/mc1_subckts.montecarlo ...

**** Performing monte carlo loop for `mc1'

1   0.00% 

*****************************************************************************************
* 
* INFO: AMS_processOption = C35B4C3
* 
* INFO: Valid Modules  PIP VG5 HIRES
* 
*****************************************************************************************


Notice from spectre at iteration = 1 during Monte Carlo analysis `mc1'.
    V8: `period' has the unusually large value of 100 s.


***********************************************
Transient Analysis `tran': time = (0 s -> 50 s)
***********************************************

Opening the PSF file ../psf/mc1_separate/001/tran.tran.tran ...

Warning from spectre at iteration = 1 during check, during IC analysis, during transient analysis `tran', during Monte Carlo analysis `mc1'.
    WARNING (CMI-2943): Parameter checks have been ignored because the valid value for parameter 'trise' could not be found in 'C1'.
    WARNING (CMI-2943): Parameter checks have been ignored because the valid value for parameter 'trise' could not be found in 'I0.R2.CM'.
    WARNING (CMI-2943): Parameter checks have been ignored because the valid value for parameter 'trise' could not be found in 'I0.R2.CS1'.
    WARNING (CMI-2943): Parameter checks have been ignored because the valid value for parameter 'trise' could not be found in 'I0.R2.CS0'.
    WARNING (CMI-2943): Parameter checks have been ignored because the valid value for parameter 'trise' could not be found in 'I0.C3.C1'.
        Further occurrences of this warning will be suppressed.

Convergence achieved in 12 iterations.
DC simulation time: CPU = 2.741 ms, elapsed = 2.73991 ms.
Important parameter values:
    start = 0 s
    outputstart = 0 s
    stop = 50 s
    step = 50 ms
    maxstep = 500 ms
    ic = all
    useprevic = no
    skipdc = no
    reltol = 10e-06
    abstol(V) = 1 uV
    abstol(I) = 1 pA
    temp = 85 C
    tnom = 27 C
    tempeffects = all
    errpreset = conservative
    method = gear2only
    lteratio = 10
    relref = alllocal
    cmin = 0 F
    gmin = 1 pS
    rabsshort = 1 mOhm


Notice from spectre at iteration = 1 during transient analysis `tran', during Monte Carlo analysis `mc1'.
    Multithreading is disabled due to the size of the design being too small.


Output and IC/nodeset summary:
                 save   8       (current)
                 save   87      (voltage)

    tran: time = 1.29 s      (2.58 %), step = 106.6 ms     (213 m%)
    tran: time = 3.791 s     (7.58 %), step = 327.7 ms     (655 m%)
    tran: time = 6.386 s     (12.8 %), step = 500 ms          (1 %)
    tran: time = 8.886 s     (17.8 %), step = 500 ms          (1 %)
    tran: time = 11.39 s     (22.8 %), step = 500 ms          (1 %)
    tran: time = 13.89 s     (27.8 %), step = 500 ms          (1 %)
    tran: time = 16.39 s     (32.8 %), step = 500 ms          (1 %)
    tran: time = 18.89 s     (37.8 %), step = 500 ms          (1 %)
    tran: time = 21.39 s     (42.8 %), step = 500 ms          (1 %)
    tran: time = 23.89 s     (47.8 %), step = 500 ms          (1 %)
    tran: time = 26.39 s     (52.8 %), step = 500 ms          (1 %)
    tran: time = 28.89 s     (57.8 %), step = 500 ms          (1 %)
    tran: time = 31.39 s     (62.8 %), step = 500 ms          (1 %)
    tran: time = 33.89 s     (67.8 %), step = 500 ms          (1 %)
    tran: time = 36.39 s     (72.8 %), step = 500 ms          (1 %)
    tran: time = 38.89 s     (77.8 %), step = 500 ms          (1 %)
    tran: time = 41.39 s     (82.8 %), step = 500 ms          (1 %)
    tran: time = 43.89 s     (87.8 %), step = 500 ms          (1 %)
    tran: time = 46.39 s     (92.8 %), step = 500 ms          (1 %)
    tran: time = 48.89 s     (97.8 %), step = 500 ms          (1 %)
Number of accepted tran steps =             739

Maximum value achieved for any signal of each quantity: 
V: V(S<0>) = 3.3 V
I: I(V8:p) = 6.363 uA

~~~~~~~~~~~~~~~~~~~~~~~~~~~~~~~~~
Post-Transient Simulation Summary
~~~~~~~~~~~~~~~~~~~~~~~~~~~~~~~~~
   -   To further speed up simulation, consider
          add ++aps on command line
   -   Non-default settings that could significantly slow down simulation
          errpreset = conservative, default moderate
          reltol = 10e-06, default 100e-06 (conservative)
~~~~~~~~~~~~~~~~~~~~~~~~~~~~~~~~~


During simulation, the CPU load for active processors is :
         0 (5.9 %)       1 (17.5 %)      2 (47.6 %)      3 (4.0 %)
         4 (100.0 %)     5 (3.6 %)       6 (23.2 %)      7 (4.5 %)
         8 (6.8 %)       9 (7.6 %)      10 (11.1 %)     11 (18.1 %)
        12 (4.5 %)      13 (24.3 %)     14 (3.2 %)      15 (42.2 %)
        16 (53.3 %)     17 (8.0 %)      18 (6.6 %)      19 (8.1 %)
        20 (100.0 %)    21 (3.2 %)      22 (2.2 %)      23 (4.9 %)
        24 (100.0 %)    25 (3.9 %)      26 (3.1 %)      27 (2.7 %)
        28 (5.3 %)      29 (5.8 %)      30 (24.1 %)     31 (71.8 %)
        32 (3.6 %)      33 (59.1 %)     34 (4.5 %)      35 (4.9 %)
        36 (61.9 %)     37 (7.6 %)      38 (4.0 %)      39 (8.5 %)
        40 (6.2 %)      41 (3.6 %)      42 (2.2 %)      43 (23.7 %)
        44 (3.6 %)      45 (23.3 %)     46 (3.6 %)      47 (3.1 %)
        Total: 950.5%
Initial condition solution time: CPU = 2.798 ms, elapsed = 2.79999 ms.
Intrinsic tran analysis time:    CPU = 452.014 ms, elapsed = 453.433 ms.
Total time required for tran analysis `tran': CPU = 457.865 ms, elapsed = 459.861 ms, util. = 99.6%.
Time accumulated: CPU = 1.59858 s, elapsed = 2.3658 s.
Peak resident memory used = 213 Mbytes.


Notice from spectre during transient analysis `tran', during Monte Carlo analysis `mc1'.
    34 warnings suppressed.

finalTimeOP: writing operating point information to rawfile.

Opening the PSF file ../psf/mc1_separate/001/finalTimeOP.info ...
modelParameter: writing model parameter values to rawfile.

Opening the PSF file ../psf/mc1_separate/001/modelParameter.info ...
element: writing instance parameter values to rawfile.

Opening the PSF file ../psf/mc1_separate/001/element.info ...
outputParameter: writing output parameter values to rawfile.

Opening the PSF file ../psf/mc1_separate/001/outputParameter.info ...
designParamVals: writing netlist parameters to rawfile.

Opening the PSFASCII file ../psf/mc1_separate/001/designParamVals.info ...
primitives: writing primitives to rawfile.

Opening the PSFASCII file ../psf/mc1_separate/001/primitives.info.primitives ...
subckts: writing subcircuits to rawfile.

Opening the PSFASCII file ../psf/mc1_separate/001/subckts.info.subckts ...
2   1.01% 

*****************************************************************************************
* 
* INFO: AMS_processOption = C35B4C3
* 
* INFO: Valid Modules  PIP VG5 HIRES
* 
*****************************************************************************************


Notice from spectre during Monte Carlo analysis `mc1'.
    V8: `period' has the unusually large value of 100 s.


***********************************************
Transient Analysis `tran': time = (0 s -> 50 s)
***********************************************

Opening the PSF file ../psf/mc1_separate/002/tran.tran.tran ...

Warning from spectre during check, during IC analysis, during transient analysis `tran', during Monte Carlo analysis `mc1'.
    WARNING (CMI-2943): Parameter checks have been ignored because the valid value for parameter 'trise' could not be found in 'C1'.
    WARNING (CMI-2943): Parameter checks have been ignored because the valid value for parameter 'trise' could not be found in 'I0.R2.CM'.
    WARNING (CMI-2943): Parameter checks have been ignored because the valid value for parameter 'trise' could not be found in 'I0.R2.CS1'.
    WARNING (CMI-2943): Parameter checks have been ignored because the valid value for parameter 'trise' could not be found in 'I0.R2.CS0'.
    WARNING (CMI-2943): Parameter checks have been ignored because the valid value for parameter 'trise' could not be found in 'I0.C3.C1'.
        Further occurrences of this warning will be suppressed.

Convergence achieved in 12 iterations.
DC simulation time: CPU = 2.697 ms, elapsed = 2.69794 ms.
Important parameter values:
    start = 0 s
    outputstart = 0 s
    stop = 50 s
    step = 50 ms
    maxstep = 500 ms
    ic = all
    useprevic = no
    skipdc = no
    reltol = 10e-06
    abstol(V) = 1 uV
    abstol(I) = 1 pA
    temp = 85 C
    tnom = 27 C
    tempeffects = all
    errpreset = conservative
    method = gear2only
    lteratio = 10
    relref = alllocal
    cmin = 0 F
    gmin = 1 pS
    rabsshort = 1 mOhm


Notice from spectre during transient analysis `tran', during Monte Carlo analysis `mc1'.
    Multithreading is disabled due to the size of the design being too small.


Output and IC/nodeset summary:
                 save   8       (current)
                 save   87      (voltage)

    tran: time = 1.295 s     (2.59 %), step = 108.2 ms     (216 m%)
    tran: time = 3.83 s      (7.66 %), step = 331.8 ms     (664 m%)
    tran: time = 6.447 s     (12.9 %), step = 500 ms          (1 %)
    tran: time = 8.947 s     (17.9 %), step = 500 ms          (1 %)
    tran: time = 11.45 s     (22.9 %), step = 500 ms          (1 %)
    tran: time = 13.95 s     (27.9 %), step = 500 ms          (1 %)
    tran: time = 16.45 s     (32.9 %), step = 500 ms          (1 %)
    tran: time = 18.95 s     (37.9 %), step = 500 ms          (1 %)
    tran: time = 21.45 s     (42.9 %), step = 500 ms          (1 %)
    tran: time = 23.95 s     (47.9 %), step = 500 ms          (1 %)
    tran: time = 26.45 s     (52.9 %), step = 500 ms          (1 %)
    tran: time = 28.95 s     (57.9 %), step = 500 ms          (1 %)
    tran: time = 31.45 s     (62.9 %), step = 500 ms          (1 %)
    tran: time = 33.95 s     (67.9 %), step = 500 ms          (1 %)
    tran: time = 36.45 s     (72.9 %), step = 500 ms          (1 %)
    tran: time = 38.95 s     (77.9 %), step = 500 ms          (1 %)
    tran: time = 41.45 s     (82.9 %), step = 500 ms          (1 %)
    tran: time = 43.95 s     (87.9 %), step = 500 ms          (1 %)
    tran: time = 46.45 s     (92.9 %), step = 500 ms          (1 %)
    tran: time = 48.95 s     (97.9 %), step = 500 ms          (1 %)
Number of accepted tran steps =             735

Maximum value achieved for any signal of each quantity: 
V: V(S<0>) = 3.3 V
I: I(V8:p) = 6.395 uA

~~~~~~~~~~~~~~~~~~~~~~~~~~~~~~~~~
Post-Transient Simulation Summary
~~~~~~~~~~~~~~~~~~~~~~~~~~~~~~~~~
   -   To further speed up simulation, consider
          add ++aps on command line
   -   Non-default settings that could significantly slow down simulation
          errpreset = conservative, default moderate
          reltol = 10e-06, default 100e-06 (conservative)
~~~~~~~~~~~~~~~~~~~~~~~~~~~~~~~~~


During simulation, the CPU load for active processors is :
         0 (4.8 %)       1 (14.8 %)      2 (56.2 %)      3 (3.7 %)
         4 (100.0 %)     5 (4.0 %)       6 (19.1 %)      7 (4.4 %)
         8 (6.6 %)       9 (9.5 %)      10 (10.2 %)     11 (15.6 %)
        12 (5.4 %)      13 (20.4 %)     14 (3.3 %)      15 (52.7 %)
        16 (44.2 %)     17 (6.9 %)      18 (11.6 %)     19 (7.0 %)
        20 (100.0 %)    21 (3.3 %)      22 (19.7 %)     23 (7.0 %)
        24 (100.0 %)    25 (3.3 %)      26 (3.3 %)      27 (2.2 %)
        28 (9.1 %)      29 (4.8 %)      30 (20.5 %)     31 (62.8 %)
        32 (4.8 %)      33 (66.1 %)     34 (4.4 %)      35 (5.5 %)
        36 (68.2 %)     37 (6.6 %)      38 (8.4 %)      39 (13.5 %)
        40 (9.1 %)      41 (2.9 %)      42 (2.2 %)      43 (20.1 %)
        44 (3.7 %)      45 (23.5 %)     46 (3.3 %)      47 (2.9 %)
        Total: 981.7%
Initial condition solution time: CPU = 2.748 ms, elapsed = 2.74992 ms.
Intrinsic tran analysis time:    CPU = 437.114 ms, elapsed = 438.659 ms.
Total time required for tran analysis `tran': CPU = 442.248 ms, elapsed = 444.411 ms, util. = 99.5%.
Time accumulated: CPU = 2.08076 s, elapsed = 2.86018 s.
Peak resident memory used = 213 Mbytes.


Notice from spectre during transient analysis `tran', during Monte Carlo analysis `mc1'.
    34 warnings suppressed.

finalTimeOP: writing operating point information to rawfile.

Opening the PSF file ../psf/mc1_separate/002/finalTimeOP.info ...
modelParameter: writing model parameter values to rawfile.

Opening the PSF file ../psf/mc1_separate/002/modelParameter.info ...
element: writing instance parameter values to rawfile.

Opening the PSF file ../psf/mc1_separate/002/element.info ...
outputParameter: writing output parameter values to rawfile.

Opening the PSF file ../psf/mc1_separate/002/outputParameter.info ...
designParamVals: writing netlist parameters to rawfile.

Opening the PSFASCII file ../psf/mc1_separate/002/designParamVals.info ...
primitives: writing primitives to rawfile.

Opening the PSFASCII file ../psf/mc1_separate/002/primitives.info.primitives ...
subckts: writing subcircuits to rawfile.

Opening the PSFASCII file ../psf/mc1_separate/002/subckts.info.subckts ...
3   2.02% 

*****************************************************************************************
* 
* INFO: AMS_processOption = C35B4C3
* 
* INFO: Valid Modules  PIP VG5 HIRES
* 
*****************************************************************************************


Notice from spectre during Monte Carlo analysis `mc1'.
    V8: `period' has the unusually large value of 100 s.


***********************************************
Transient Analysis `tran': time = (0 s -> 50 s)
***********************************************

Opening the PSF file ../psf/mc1_separate/003/tran.tran.tran ...

Warning from spectre during check, during IC analysis, during transient analysis `tran', during Monte Carlo analysis `mc1'.
    WARNING (CMI-2943): Parameter checks have been ignored because the valid value for parameter 'trise' could not be found in 'C1'.
    WARNING (CMI-2943): Parameter checks have been ignored because the valid value for parameter 'trise' could not be found in 'I0.R2.CM'.
    WARNING (CMI-2943): Parameter checks have been ignored because the valid value for parameter 'trise' could not be found in 'I0.R2.CS1'.
    WARNING (CMI-2943): Parameter checks have been ignored because the valid value for parameter 'trise' could not be found in 'I0.R2.CS0'.
    WARNING (CMI-2943): Parameter checks have been ignored because the valid value for parameter 'trise' could not be found in 'I0.C3.C1'.
        Further occurrences of this warning will be suppressed.

Convergence achieved in 12 iterations.
DC simulation time: CPU = 2.745 ms, elapsed = 2.74491 ms.
Important parameter values:
    start = 0 s
    outputstart = 0 s
    stop = 50 s
    step = 50 ms
    maxstep = 500 ms
    ic = all
    useprevic = no
    skipdc = no
    reltol = 10e-06
    abstol(V) = 1 uV
    abstol(I) = 1 pA
    temp = 85 C
    tnom = 27 C
    tempeffects = all
    errpreset = conservative
    method = gear2only
    lteratio = 10
    relref = alllocal
    cmin = 0 F
    gmin = 1 pS
    rabsshort = 1 mOhm


Notice from spectre during transient analysis `tran', during Monte Carlo analysis `mc1'.
    Multithreading is disabled due to the size of the design being too small.


Output and IC/nodeset summary:
                 save   8       (current)
                 save   87      (voltage)

    tran: time = 1.342 s     (2.68 %), step = 117 ms       (234 m%)
    tran: time = 4.061 s     (8.12 %), step = 352.4 ms     (705 m%)
    tran: time = 6.274 s     (12.5 %), step = 500 ms          (1 %)
    tran: time = 8.774 s     (17.5 %), step = 500 ms          (1 %)
    tran: time = 11.27 s     (22.5 %), step = 500 ms          (1 %)
    tran: time = 13.77 s     (27.5 %), step = 500 ms          (1 %)
    tran: time = 16.27 s     (32.5 %), step = 500 ms          (1 %)
    tran: time = 18.77 s     (37.5 %), step = 500 ms          (1 %)
    tran: time = 21.27 s     (42.5 %), step = 500 ms          (1 %)
    tran: time = 23.77 s     (47.5 %), step = 500 ms          (1 %)
    tran: time = 26.27 s     (52.5 %), step = 500 ms          (1 %)
    tran: time = 28.77 s     (57.5 %), step = 500 ms          (1 %)
    tran: time = 31.27 s     (62.5 %), step = 500 ms          (1 %)
    tran: time = 33.77 s     (67.5 %), step = 500 ms          (1 %)
    tran: time = 36.27 s     (72.5 %), step = 500 ms          (1 %)
    tran: time = 38.77 s     (77.5 %), step = 500 ms          (1 %)
    tran: time = 41.27 s     (82.5 %), step = 500 ms          (1 %)
    tran: time = 43.77 s     (87.5 %), step = 500 ms          (1 %)
    tran: time = 46.27 s     (92.5 %), step = 500 ms          (1 %)
    tran: time = 48.77 s     (97.5 %), step = 500 ms          (1 %)
Number of accepted tran steps =             737

Maximum value achieved for any signal of each quantity: 
V: V(S<0>) = 3.3 V
I: I(V8:p) = 6.304 uA

~~~~~~~~~~~~~~~~~~~~~~~~~~~~~~~~~
Post-Transient Simulation Summary
~~~~~~~~~~~~~~~~~~~~~~~~~~~~~~~~~
   -   To further speed up simulation, consider
          add ++aps on command line
   -   Non-default settings that could significantly slow down simulation
          errpreset = conservative, default moderate
          reltol = 10e-06, default 100e-06 (conservative)
~~~~~~~~~~~~~~~~~~~~~~~~~~~~~~~~~


During simulation, the CPU load for active processors is :
         0 (4.1 %)       1 (12.5 %)      2 (62.5 %)      3 (3.1 %)
         4 (100.0 %)     5 (3.7 %)       6 (16.2 %)      7 (6.6 %)
         8 (6.2 %)       9 (10.5 %)     10 (9.3 %)      11 (14.1 %)
        12 (5.0 %)      13 (17.7 %)     14 (3.4 %)      15 (59.9 %)
        16 (38.2 %)     17 (6.2 %)      18 (10.2 %)     19 (6.9 %)
        20 (100.0 %)    21 (6.9 %)      22 (31.2 %)     23 (7.1 %)
        24 (100.0 %)    25 (3.7 %)      26 (3.1 %)      27 (2.5 %)
        28 (22.8 %)     29 (4.7 %)      30 (17.4 %)     31 (65.8 %)
        32 (6.6 %)      33 (59.2 %)     34 (5.9 %)      35 (5.0 %)
        36 (72.8 %)     37 (6.9 %)      38 (22.5 %)     39 (26.5 %)
        40 (7.7 %)      41 (3.4 %)      42 (2.2 %)      43 (17.1 %)
        44 (3.7 %)      45 (23.0 %)     46 (3.1 %)      47 (2.8 %)
        Total: 1030.3%
Initial condition solution time: CPU = 2.795 ms, elapsed = 2.79617 ms.
Intrinsic tran analysis time:    CPU = 436.744 ms, elapsed = 438.105 ms.
Total time required for tran analysis `tran': CPU = 442.122 ms, elapsed = 444.097 ms, util. = 99.6%.
Time accumulated: CPU = 2.56333 s, elapsed = 3.35524 s.
Peak resident memory used = 213 Mbytes.


Notice from spectre during transient analysis `tran', during Monte Carlo analysis `mc1'.
    34 warnings suppressed.

finalTimeOP: writing operating point information to rawfile.

Opening the PSF file ../psf/mc1_separate/003/finalTimeOP.info ...
modelParameter: writing model parameter values to rawfile.

Opening the PSF file ../psf/mc1_separate/003/modelParameter.info ...
element: writing instance parameter values to rawfile.

Opening the PSF file ../psf/mc1_separate/003/element.info ...
outputParameter: writing output parameter values to rawfile.

Opening the PSF file ../psf/mc1_separate/003/outputParameter.info ...
designParamVals: writing netlist parameters to rawfile.

Opening the PSFASCII file ../psf/mc1_separate/003/designParamVals.info ...
primitives: writing primitives to rawfile.

Opening the PSFASCII file ../psf/mc1_separate/003/primitives.info.primitives ...
subckts: writing subcircuits to rawfile.

Opening the PSFASCII file ../psf/mc1_separate/003/subckts.info.subckts ...
4   3.03% 

*****************************************************************************************
* 
* INFO: AMS_processOption = C35B4C3
* 
* INFO: Valid Modules  PIP VG5 HIRES
* 
*****************************************************************************************


Notice from spectre during Monte Carlo analysis `mc1'.
    V8: `period' has the unusually large value of 100 s.


***********************************************
Transient Analysis `tran': time = (0 s -> 50 s)
***********************************************

Opening the PSF file ../psf/mc1_separate/004/tran.tran.tran ...

Warning from spectre during check, during IC analysis, during transient analysis `tran', during Monte Carlo analysis `mc1'.
    WARNING (CMI-2943): Parameter checks have been ignored because the valid value for parameter 'trise' could not be found in 'C1'.
    WARNING (CMI-2943): Parameter checks have been ignored because the valid value for parameter 'trise' could not be found in 'I0.R2.CM'.
    WARNING (CMI-2943): Parameter checks have been ignored because the valid value for parameter 'trise' could not be found in 'I0.R2.CS1'.
    WARNING (CMI-2943): Parameter checks have been ignored because the valid value for parameter 'trise' could not be found in 'I0.R2.CS0'.
    WARNING (CMI-2943): Parameter checks have been ignored because the valid value for parameter 'trise' could not be found in 'I0.C3.C1'.
        Further occurrences of this warning will be suppressed.

Convergence achieved in 12 iterations.
DC simulation time: CPU = 2.796 ms, elapsed = 2.79784 ms.
Important parameter values:
    start = 0 s
    outputstart = 0 s
    stop = 50 s
    step = 50 ms
    maxstep = 500 ms
    ic = all
    useprevic = no
    skipdc = no
    reltol = 10e-06
    abstol(V) = 1 uV
    abstol(I) = 1 pA
    temp = 85 C
    tnom = 27 C
    tempeffects = all
    errpreset = conservative
    method = gear2only
    lteratio = 10
    relref = alllocal
    cmin = 0 F
    gmin = 1 pS
    rabsshort = 1 mOhm


Notice from spectre during transient analysis `tran', during Monte Carlo analysis `mc1'.
    Multithreading is disabled due to the size of the design being too small.


Output and IC/nodeset summary:
                 save   8       (current)
                 save   87      (voltage)

    tran: time = 1.342 s     (2.68 %), step = 117.6 ms     (235 m%)
    tran: time = 4.074 s     (8.15 %), step = 353.4 ms     (707 m%)
    tran: time = 6.29 s      (12.6 %), step = 500 ms          (1 %)
    tran: time = 8.79 s      (17.6 %), step = 500 ms          (1 %)
    tran: time = 11.29 s     (22.6 %), step = 500 ms          (1 %)
    tran: time = 13.79 s     (27.6 %), step = 500 ms          (1 %)
    tran: time = 16.29 s     (32.6 %), step = 500 ms          (1 %)
    tran: time = 18.79 s     (37.6 %), step = 500 ms          (1 %)
    tran: time = 21.29 s     (42.6 %), step = 500 ms          (1 %)
    tran: time = 23.79 s     (47.6 %), step = 500 ms          (1 %)
    tran: time = 26.29 s     (52.6 %), step = 500 ms          (1 %)
    tran: time = 28.79 s     (57.6 %), step = 500 ms          (1 %)
    tran: time = 31.29 s     (62.6 %), step = 500 ms          (1 %)
    tran: time = 33.79 s     (67.6 %), step = 500 ms          (1 %)
    tran: time = 36.29 s     (72.6 %), step = 500 ms          (1 %)
    tran: time = 38.79 s     (77.6 %), step = 500 ms          (1 %)
    tran: time = 41.29 s     (82.6 %), step = 500 ms          (1 %)
    tran: time = 43.79 s     (87.6 %), step = 500 ms          (1 %)
    tran: time = 46.29 s     (92.6 %), step = 500 ms          (1 %)
    tran: time = 48.79 s     (97.6 %), step = 500 ms          (1 %)
Number of accepted tran steps =             741

Maximum value achieved for any signal of each quantity: 
V: V(S<0>) = 3.3 V
I: I(V8:p) = 6.541 uA

~~~~~~~~~~~~~~~~~~~~~~~~~~~~~~~~~
Post-Transient Simulation Summary
~~~~~~~~~~~~~~~~~~~~~~~~~~~~~~~~~
   -   To further speed up simulation, consider
          add ++aps on command line
   -   Non-default settings that could significantly slow down simulation
          errpreset = conservative, default moderate
          reltol = 10e-06, default 100e-06 (conservative)
~~~~~~~~~~~~~~~~~~~~~~~~~~~~~~~~~


During simulation, the CPU load for active processors is :
         0 (3.8 %)       1 (13.4 %)      2 (55.5 %)      3 (3.0 %)
         4 (98.2 %)      5 (3.8 %)       6 (15.3 %)      7 (6.4 %)
         8 (15.5 %)      9 (9.8 %)      10 (8.8 %)      11 (12.7 %)
        12 (6.3 %)      13 (15.5 %)     14 (3.0 %)      15 (65.5 %)
        16 (45.9 %)     17 (7.5 %)      18 (9.8 %)      19 (6.5 %)
        20 (100.0 %)    21 (19.9 %)     22 (27.8 %)     23 (8.0 %)
        24 (100.0 %)    25 (3.4 %)      26 (3.0 %)      27 (2.4 %)
        28 (32.9 %)     29 (4.5 %)      30 (15.0 %)     31 (70.1 %)
        32 (8.1 %)      33 (51.7 %)     34 (5.9 %)      35 (4.8 %)
        36 (71.4 %)     37 (6.2 %)      38 (32.5 %)     39 (35.7 %)
        40 (7.4 %)      41 (3.2 %)      42 (8.1 %)      43 (15.2 %)
        44 (3.7 %)      45 (22.5 %)     46 (3.2 %)      47 (2.7 %)
        Total: 1075.9%
Initial condition solution time: CPU = 2.844 ms, elapsed = 2.846 ms.
Intrinsic tran analysis time:    CPU = 463.468 ms, elapsed = 464.639 ms.
Total time required for tran analysis `tran': CPU = 469.395 ms, elapsed = 471.222 ms, util. = 99.6%.
Time accumulated: CPU = 3.07714 s, elapsed = 3.88117 s.
Peak resident memory used = 213 Mbytes.


Notice from spectre during transient analysis `tran', during Monte Carlo analysis `mc1'.
    34 warnings suppressed.

finalTimeOP: writing operating point information to rawfile.

Opening the PSF file ../psf/mc1_separate/004/finalTimeOP.info ...
modelParameter: writing model parameter values to rawfile.

Opening the PSF file ../psf/mc1_separate/004/modelParameter.info ...
element: writing instance parameter values to rawfile.

Opening the PSF file ../psf/mc1_separate/004/element.info ...
outputParameter: writing output parameter values to rawfile.

Opening the PSF file ../psf/mc1_separate/004/outputParameter.info ...
designParamVals: writing netlist parameters to rawfile.

Opening the PSFASCII file ../psf/mc1_separate/004/designParamVals.info ...
primitives: writing primitives to rawfile.

Opening the PSFASCII file ../psf/mc1_separate/004/primitives.info.primitives ...
subckts: writing subcircuits to rawfile.

Opening the PSFASCII file ../psf/mc1_separate/004/subckts.info.subckts ...
    mc1: iteration = 4           (3.03 %), step = 1            (1.01 %)
5   4.04% 

*****************************************************************************************
* 
* INFO: AMS_processOption = C35B4C3
* 
* INFO: Valid Modules  PIP VG5 HIRES
* 
*****************************************************************************************


Notice from spectre during Monte Carlo analysis `mc1'.
    V8: `period' has the unusually large value of 100 s.


***********************************************
Transient Analysis `tran': time = (0 s -> 50 s)
***********************************************

Opening the PSF file ../psf/mc1_separate/005/tran.tran.tran ...

Warning from spectre during check, during IC analysis, during transient analysis `tran', during Monte Carlo analysis `mc1'.
    WARNING (CMI-2943): Parameter checks have been ignored because the valid value for parameter 'trise' could not be found in 'C1'.
    WARNING (CMI-2943): Parameter checks have been ignored because the valid value for parameter 'trise' could not be found in 'I0.R2.CM'.
    WARNING (CMI-2943): Parameter checks have been ignored because the valid value for parameter 'trise' could not be found in 'I0.R2.CS1'.
    WARNING (CMI-2943): Parameter checks have been ignored because the valid value for parameter 'trise' could not be found in 'I0.R2.CS0'.
    WARNING (CMI-2943): Parameter checks have been ignored because the valid value for parameter 'trise' could not be found in 'I0.C3.C1'.
        Further occurrences of this warning will be suppressed.

Convergence achieved in 12 iterations.
DC simulation time: CPU = 2.642 ms, elapsed = 2.64382 ms.
Important parameter values:
    start = 0 s
    outputstart = 0 s
    stop = 50 s
    step = 50 ms
    maxstep = 500 ms
    ic = all
    useprevic = no
    skipdc = no
    reltol = 10e-06
    abstol(V) = 1 uV
    abstol(I) = 1 pA
    temp = 85 C
    tnom = 27 C
    tempeffects = all
    errpreset = conservative
    method = gear2only
    lteratio = 10
    relref = alllocal
    cmin = 0 F
    gmin = 1 pS
    rabsshort = 1 mOhm


Notice from spectre during transient analysis `tran', during Monte Carlo analysis `mc1'.
    Multithreading is disabled due to the size of the design being too small.


Output and IC/nodeset summary:
                 save   8       (current)
                 save   87      (voltage)

    tran: time = 1.331 s     (2.66 %), step = 111.9 ms     (224 m%)
    tran: time = 3.946 s     (7.89 %), step = 341.4 ms     (683 m%)
    tran: time = 6.617 s     (13.2 %), step = 500 ms          (1 %)
    tran: time = 9.117 s     (18.2 %), step = 500 ms          (1 %)
    tran: time = 11.62 s     (23.2 %), step = 500 ms          (1 %)
    tran: time = 14.12 s     (28.2 %), step = 500 ms          (1 %)
    tran: time = 16.62 s     (33.2 %), step = 500 ms          (1 %)
    tran: time = 19.12 s     (38.2 %), step = 500 ms          (1 %)
    tran: time = 21.62 s     (43.2 %), step = 500 ms          (1 %)
    tran: time = 24.12 s     (48.2 %), step = 500 ms          (1 %)
    tran: time = 26.62 s     (53.2 %), step = 500 ms          (1 %)
    tran: time = 29.12 s     (58.2 %), step = 500 ms          (1 %)
    tran: time = 31.62 s     (63.2 %), step = 500 ms          (1 %)
    tran: time = 34.12 s     (68.2 %), step = 500 ms          (1 %)
    tran: time = 36.62 s     (73.2 %), step = 500 ms          (1 %)
    tran: time = 39.12 s     (78.2 %), step = 500 ms          (1 %)
    tran: time = 41.62 s     (83.2 %), step = 500 ms          (1 %)
    tran: time = 44.12 s     (88.2 %), step = 500 ms          (1 %)
    tran: time = 46.62 s     (93.2 %), step = 500 ms          (1 %)
    tran: time = 49.12 s     (98.2 %), step = 500 ms          (1 %)
Number of accepted tran steps =             733

Maximum value achieved for any signal of each quantity: 
V: V(S<0>) = 3.3 V
I: I(V8:p) = 6.458 uA

~~~~~~~~~~~~~~~~~~~~~~~~~~~~~~~~~
Post-Transient Simulation Summary
~~~~~~~~~~~~~~~~~~~~~~~~~~~~~~~~~
   -   To further speed up simulation, consider
          add ++aps on command line
   -   Non-default settings that could significantly slow down simulation
          errpreset = conservative, default moderate
          reltol = 10e-06, default 100e-06 (conservative)
~~~~~~~~~~~~~~~~~~~~~~~~~~~~~~~~~


During simulation, the CPU load for active processors is :
         0 (4.1 %)       1 (13.6 %)      2 (49.4 %)      3 (3.3 %)
         4 (88.6 %)      5 (10.2 %)      6 (13.9 %)      7 (5.7 %)
         8 (25.5 %)      9 (11.3 %)     10 (8.2 %)      11 (13.1 %)
        12 (8.8 %)      13 (14.5 %)     14 (2.9 %)      15 (69.6 %)
        16 (41.9 %)     17 (8.2 %)      18 (10.8 %)     19 (6.4 %)
        20 (100.0 %)    21 (23.8 %)     22 (35.6 %)     23 (7.1 %)
        24 (100.0 %)    25 (3.3 %)      26 (3.3 %)      27 (3.5 %)
        28 (40.6 %)     29 (4.5 %)      30 (13.7 %)     31 (73.1 %)
        32 (10.0 %)     33 (45.9 %)     34 (5.5 %)      35 (4.2 %)
        36 (69.3 %)     37 (6.2 %)      38 (34.5 %)     39 (43.4 %)
        40 (6.8 %)      41 (3.3 %)      42 (18.7 %)     43 (13.9 %)
        44 (3.6 %)      45 (22.2 %)     46 (2.8 %)      47 (3.1 %)
        Total: 1112.0%
Initial condition solution time: CPU = 2.7 ms, elapsed = 2.70796 ms.
Intrinsic tran analysis time:    CPU = 436.986 ms, elapsed = 438.267 ms.
Total time required for tran analysis `tran': CPU = 442.824 ms, elapsed = 445.238 ms, util. = 99.5%.
Time accumulated: CPU = 3.56685 s, elapsed = 4.38359 s.
Peak resident memory used = 213 Mbytes.


Notice from spectre during transient analysis `tran', during Monte Carlo analysis `mc1'.
    34 warnings suppressed.

finalTimeOP: writing operating point information to rawfile.

Opening the PSF file ../psf/mc1_separate/005/finalTimeOP.info ...
modelParameter: writing model parameter values to rawfile.

Opening the PSF file ../psf/mc1_separate/005/modelParameter.info ...
element: writing instance parameter values to rawfile.

Opening the PSF file ../psf/mc1_separate/005/element.info ...
outputParameter: writing output parameter values to rawfile.

Opening the PSF file ../psf/mc1_separate/005/outputParameter.info ...
designParamVals: writing netlist parameters to rawfile.

Opening the PSFASCII file ../psf/mc1_separate/005/designParamVals.info ...
primitives: writing primitives to rawfile.

Opening the PSFASCII file ../psf/mc1_separate/005/primitives.info.primitives ...
subckts: writing subcircuits to rawfile.

Opening the PSFASCII file ../psf/mc1_separate/005/subckts.info.subckts ...
    mc1: iteration = 5           (4.04 %), step = 1            (1.01 %)
6   5.05% 

*****************************************************************************************
* 
* INFO: AMS_processOption = C35B4C3
* 
* INFO: Valid Modules  PIP VG5 HIRES
* 
*****************************************************************************************


Notice from spectre during Monte Carlo analysis `mc1'.
    V8: `period' has the unusually large value of 100 s.


***********************************************
Transient Analysis `tran': time = (0 s -> 50 s)
***********************************************

Opening the PSF file ../psf/mc1_separate/006/tran.tran.tran ...

Warning from spectre during check, during IC analysis, during transient analysis `tran', during Monte Carlo analysis `mc1'.
    WARNING (CMI-2943): Parameter checks have been ignored because the valid value for parameter 'trise' could not be found in 'C1'.
    WARNING (CMI-2943): Parameter checks have been ignored because the valid value for parameter 'trise' could not be found in 'I0.R2.CM'.
    WARNING (CMI-2943): Parameter checks have been ignored because the valid value for parameter 'trise' could not be found in 'I0.R2.CS1'.
    WARNING (CMI-2943): Parameter checks have been ignored because the valid value for parameter 'trise' could not be found in 'I0.R2.CS0'.
    WARNING (CMI-2943): Parameter checks have been ignored because the valid value for parameter 'trise' could not be found in 'I0.C3.C1'.
        Further occurrences of this warning will be suppressed.

Convergence achieved in 12 iterations.
DC simulation time: CPU = 2.541 ms, elapsed = 2.54107 ms.
Important parameter values:
    start = 0 s
    outputstart = 0 s
    stop = 50 s
    step = 50 ms
    maxstep = 500 ms
    ic = all
    useprevic = no
    skipdc = no
    reltol = 10e-06
    abstol(V) = 1 uV
    abstol(I) = 1 pA
    temp = 85 C
    tnom = 27 C
    tempeffects = all
    errpreset = conservative
    method = gear2only
    lteratio = 10
    relref = alllocal
    cmin = 0 F
    gmin = 1 pS
    rabsshort = 1 mOhm


Notice from spectre during transient analysis `tran', during Monte Carlo analysis `mc1'.
    Multithreading is disabled due to the size of the design being too small.


Output and IC/nodeset summary:
                 save   8       (current)
                 save   87      (voltage)

    tran: time = 1.36 s      (2.72 %), step = 116.9 ms     (234 m%)
    tran: time = 4.083 s     (8.17 %), step = 353.6 ms     (707 m%)
    tran: time = 6.303 s     (12.6 %), step = 500 ms          (1 %)
    tran: time = 8.803 s     (17.6 %), step = 500 ms          (1 %)
    tran: time = 11.3 s      (22.6 %), step = 500 ms          (1 %)
    tran: time = 13.8 s      (27.6 %), step = 500 ms          (1 %)
    tran: time = 16.3 s      (32.6 %), step = 500 ms          (1 %)
    tran: time = 18.8 s      (37.6 %), step = 500 ms          (1 %)
    tran: time = 21.3 s      (42.6 %), step = 500 ms          (1 %)
    tran: time = 23.8 s      (47.6 %), step = 500 ms          (1 %)
    tran: time = 26.3 s      (52.6 %), step = 500 ms          (1 %)
    tran: time = 28.8 s      (57.6 %), step = 500 ms          (1 %)
    tran: time = 31.3 s      (62.6 %), step = 500 ms          (1 %)
    tran: time = 33.8 s      (67.6 %), step = 500 ms          (1 %)
    tran: time = 36.3 s      (72.6 %), step = 500 ms          (1 %)
    tran: time = 38.8 s      (77.6 %), step = 500 ms          (1 %)
    tran: time = 41.3 s      (82.6 %), step = 500 ms          (1 %)
    tran: time = 43.8 s      (87.6 %), step = 500 ms          (1 %)
    tran: time = 46.3 s      (92.6 %), step = 500 ms          (1 %)
    tran: time = 48.8 s      (97.6 %), step = 500 ms          (1 %)
Number of accepted tran steps =             739

Maximum value achieved for any signal of each quantity: 
V: V(S<0>) = 3.3 V
I: I(V8:p) = 6.487 uA

~~~~~~~~~~~~~~~~~~~~~~~~~~~~~~~~~
Post-Transient Simulation Summary
~~~~~~~~~~~~~~~~~~~~~~~~~~~~~~~~~
   -   To further speed up simulation, consider
          add ++aps on command line
   -   Non-default settings that could significantly slow down simulation
          errpreset = conservative, default moderate
          reltol = 10e-06, default 100e-06 (conservative)
~~~~~~~~~~~~~~~~~~~~~~~~~~~~~~~~~


During simulation, the CPU load for active processors is :
         0 (4.1 %)       1 (12.4 %)      2 (45.6 %)      3 (3.2 %)
         4 (88.1 %)      5 (9.1 %)       6 (12.5 %)      7 (5.5 %)
         8 (23.6 %)      9 (10.3 %)     10 (7.4 %)      11 (22.2 %)
        12 (17.7 %)     13 (13.7 %)     14 (2.8 %)      15 (72.7 %)
        16 (38.3 %)     17 (8.2 %)      18 (10.1 %)     19 (6.2 %)
        20 (100.0 %)    21 (21.7 %)     22 (41.6 %)     23 (6.6 %)
        24 (100.0 %)    25 (4.4 %)      26 (3.2 %)      27 (4.0 %)
        28 (46.5 %)     29 (4.2 %)      30 (13.3 %)     31 (75.9 %)
        32 (11.0 %)     33 (41.7 %)     34 (5.3 %)      35 (4.0 %)
        36 (71.8 %)     37 (6.2 %)      38 (31.7 %)     39 (45.4 %)
        40 (6.9 %)      41 (3.4 %)      42 (22.8 %)     43 (12.9 %)
        44 (7.4 %)      45 (24.5 %)     46 (6.6 %)      47 (5.5 %)
        Total: 1142.4%
Initial condition solution time: CPU = 2.582 ms, elapsed = 2.58398 ms.
Intrinsic tran analysis time:    CPU = 439.683 ms, elapsed = 441.271 ms.
Total time required for tran analysis `tran': CPU = 444.906 ms, elapsed = 447.101 ms, util. = 99.5%.
Time accumulated: CPU = 4.05725 s, elapsed = 4.8882 s.
Peak resident memory used = 213 Mbytes.


Notice from spectre during transient analysis `tran', during Monte Carlo analysis `mc1'.
    34 warnings suppressed.

finalTimeOP: writing operating point information to rawfile.

Opening the PSF file ../psf/mc1_separate/006/finalTimeOP.info ...
modelParameter: writing model parameter values to rawfile.

Opening the PSF file ../psf/mc1_separate/006/modelParameter.info ...
element: writing instance parameter values to rawfile.

Opening the PSF file ../psf/mc1_separate/006/element.info ...
outputParameter: writing output parameter values to rawfile.

Opening the PSF file ../psf/mc1_separate/006/outputParameter.info ...
designParamVals: writing netlist parameters to rawfile.

Opening the PSFASCII file ../psf/mc1_separate/006/designParamVals.info ...
primitives: writing primitives to rawfile.

Opening the PSFASCII file ../psf/mc1_separate/006/primitives.info.primitives ...
subckts: writing subcircuits to rawfile.

Opening the PSFASCII file ../psf/mc1_separate/006/subckts.info.subckts ...
    mc1: iteration = 6           (5.05 %), step = 1            (1.01 %)
7   6.06% 

*****************************************************************************************
* 
* INFO: AMS_processOption = C35B4C3
* 
* INFO: Valid Modules  PIP VG5 HIRES
* 
*****************************************************************************************


Notice from spectre during Monte Carlo analysis `mc1'.
    V8: `period' has the unusually large value of 100 s.


***********************************************
Transient Analysis `tran': time = (0 s -> 50 s)
***********************************************

Opening the PSF file ../psf/mc1_separate/007/tran.tran.tran ...

Warning from spectre during check, during IC analysis, during transient analysis `tran', during Monte Carlo analysis `mc1'.
    WARNING (CMI-2943): Parameter checks have been ignored because the valid value for parameter 'trise' could not be found in 'C1'.
    WARNING (CMI-2943): Parameter checks have been ignored because the valid value for parameter 'trise' could not be found in 'I0.R2.CM'.
    WARNING (CMI-2943): Parameter checks have been ignored because the valid value for parameter 'trise' could not be found in 'I0.R2.CS1'.
    WARNING (CMI-2943): Parameter checks have been ignored because the valid value for parameter 'trise' could not be found in 'I0.R2.CS0'.
    WARNING (CMI-2943): Parameter checks have been ignored because the valid value for parameter 'trise' could not be found in 'I0.C3.C1'.
        Further occurrences of this warning will be suppressed.

Convergence achieved in 12 iterations.
DC simulation time: CPU = 2.717 ms, elapsed = 2.72918 ms.
Important parameter values:
    start = 0 s
    outputstart = 0 s
    stop = 50 s
    step = 50 ms
    maxstep = 500 ms
    ic = all
    useprevic = no
    skipdc = no
    reltol = 10e-06
    abstol(V) = 1 uV
    abstol(I) = 1 pA
    temp = 85 C
    tnom = 27 C
    tempeffects = all
    errpreset = conservative
    method = gear2only
    lteratio = 10
    relref = alllocal
    cmin = 0 F
    gmin = 1 pS
    rabsshort = 1 mOhm


Notice from spectre during transient analysis `tran', during Monte Carlo analysis `mc1'.
    Multithreading is disabled due to the size of the design being too small.


Output and IC/nodeset summary:
                 save   8       (current)
                 save   87      (voltage)

    tran: time = 1.31 s      (2.62 %), step = 110.8 ms     (222 m%)
    tran: time = 3.899 s      (7.8 %), step = 338.2 ms     (676 m%)
    tran: time = 6.551 s     (13.1 %), step = 500 ms          (1 %)
    tran: time = 9.051 s     (18.1 %), step = 500 ms          (1 %)
    tran: time = 11.55 s     (23.1 %), step = 500 ms          (1 %)
    tran: time = 14.05 s     (28.1 %), step = 500 ms          (1 %)
    tran: time = 16.55 s     (33.1 %), step = 500 ms          (1 %)
    tran: time = 19.05 s     (38.1 %), step = 500 ms          (1 %)
    tran: time = 21.55 s     (43.1 %), step = 500 ms          (1 %)
    tran: time = 24.05 s     (48.1 %), step = 500 ms          (1 %)
    tran: time = 26.55 s     (53.1 %), step = 500 ms          (1 %)
    tran: time = 29.05 s     (58.1 %), step = 500 ms          (1 %)
    tran: time = 31.55 s     (63.1 %), step = 500 ms          (1 %)
    tran: time = 34.05 s     (68.1 %), step = 500 ms          (1 %)
    tran: time = 36.55 s     (73.1 %), step = 500 ms          (1 %)
    tran: time = 39.05 s     (78.1 %), step = 500 ms          (1 %)
    tran: time = 41.55 s     (83.1 %), step = 500 ms          (1 %)
    tran: time = 44.05 s     (88.1 %), step = 500 ms          (1 %)
    tran: time = 46.55 s     (93.1 %), step = 500 ms          (1 %)
    tran: time = 49.05 s     (98.1 %), step = 500 ms          (1 %)
Number of accepted tran steps =             737

Maximum value achieved for any signal of each quantity: 
V: V(S<0>) = 3.3 V
I: I(V8:p) = 6.416 uA

~~~~~~~~~~~~~~~~~~~~~~~~~~~~~~~~~
Post-Transient Simulation Summary
~~~~~~~~~~~~~~~~~~~~~~~~~~~~~~~~~
   -   To further speed up simulation, consider
          add ++aps on command line
   -   Non-default settings that could significantly slow down simulation
          errpreset = conservative, default moderate
          reltol = 10e-06, default 100e-06 (conservative)
~~~~~~~~~~~~~~~~~~~~~~~~~~~~~~~~~


During simulation, the CPU load for active processors is :
         0 (3.9 %)       1 (12.7 %)      2 (49.3 %)      3 (3.1 %)
         4 (89.0 %)      5 (10.6 %)      6 (11.4 %)      7 (5.6 %)
         8 (22.2 %)      9 (12.9 %)     10 (7.3 %)      11 (23.2 %)
        12 (25.6 %)     13 (12.8 %)     14 (2.9 %)      15 (75.3 %)
        16 (35.1 %)     17 (7.6 %)      18 (9.5 %)      19 (5.8 %)
        20 (100.0 %)    21 (20.2 %)     22 (46.9 %)     23 (6.2 %)
        24 (100.0 %)    25 (4.6 %)      26 (3.3 %)      27 (4.0 %)
        28 (51.0 %)     29 (4.0 %)      30 (13.9 %)     31 (77.8 %)
        32 (11.9 %)     33 (38.3 %)     34 (5.4 %)      35 (3.8 %)
        36 (66.1 %)     37 (5.6 %)      38 (29.0 %)     39 (41.1 %)
        40 (7.3 %)      41 (3.3 %)      42 (21.8 %)     43 (12.3 %)
        44 (6.7 %)      45 (30.9 %)     46 (15.4 %)     47 (14.4 %)
        Total: 1170.8%
Initial condition solution time: CPU = 2.762 ms, elapsed = 2.774 ms.
Intrinsic tran analysis time:    CPU = 439.811 ms, elapsed = 441.283 ms.
Total time required for tran analysis `tran': CPU = 445.787 ms, elapsed = 447.826 ms, util. = 99.5%.
Time accumulated: CPU = 4.54459 s, elapsed = 5.38742 s.
Peak resident memory used = 213 Mbytes.


Notice from spectre during transient analysis `tran', during Monte Carlo analysis `mc1'.
    34 warnings suppressed.

finalTimeOP: writing operating point information to rawfile.

Opening the PSF file ../psf/mc1_separate/007/finalTimeOP.info ...
modelParameter: writing model parameter values to rawfile.

Opening the PSF file ../psf/mc1_separate/007/modelParameter.info ...
element: writing instance parameter values to rawfile.

Opening the PSF file ../psf/mc1_separate/007/element.info ...
outputParameter: writing output parameter values to rawfile.

Opening the PSF file ../psf/mc1_separate/007/outputParameter.info ...
designParamVals: writing netlist parameters to rawfile.

Opening the PSFASCII file ../psf/mc1_separate/007/designParamVals.info ...
primitives: writing primitives to rawfile.

Opening the PSFASCII file ../psf/mc1_separate/007/primitives.info.primitives ...
subckts: writing subcircuits to rawfile.

Opening the PSFASCII file ../psf/mc1_separate/007/subckts.info.subckts ...
    mc1: iteration = 7           (6.06 %), step = 1            (1.01 %)
8   7.07% 

*****************************************************************************************
* 
* INFO: AMS_processOption = C35B4C3
* 
* INFO: Valid Modules  PIP VG5 HIRES
* 
*****************************************************************************************


Notice from spectre during Monte Carlo analysis `mc1'.
    V8: `period' has the unusually large value of 100 s.


***********************************************
Transient Analysis `tran': time = (0 s -> 50 s)
***********************************************

Opening the PSF file ../psf/mc1_separate/008/tran.tran.tran ...

Warning from spectre during check, during IC analysis, during transient analysis `tran', during Monte Carlo analysis `mc1'.
    WARNING (CMI-2943): Parameter checks have been ignored because the valid value for parameter 'trise' could not be found in 'C1'.
    WARNING (CMI-2943): Parameter checks have been ignored because the valid value for parameter 'trise' could not be found in 'I0.R2.CM'.
    WARNING (CMI-2943): Parameter checks have been ignored because the valid value for parameter 'trise' could not be found in 'I0.R2.CS1'.
    WARNING (CMI-2943): Parameter checks have been ignored because the valid value for parameter 'trise' could not be found in 'I0.R2.CS0'.
    WARNING (CMI-2943): Parameter checks have been ignored because the valid value for parameter 'trise' could not be found in 'I0.C3.C1'.
        Further occurrences of this warning will be suppressed.

Convergence achieved in 12 iterations.
DC simulation time: CPU = 2.629 ms, elapsed = 2.6288 ms.
Important parameter values:
    start = 0 s
    outputstart = 0 s
    stop = 50 s
    step = 50 ms
    maxstep = 500 ms
    ic = all
    useprevic = no
    skipdc = no
    reltol = 10e-06
    abstol(V) = 1 uV
    abstol(I) = 1 pA
    temp = 85 C
    tnom = 27 C
    tempeffects = all
    errpreset = conservative
    method = gear2only
    lteratio = 10
    relref = alllocal
    cmin = 0 F
    gmin = 1 pS
    rabsshort = 1 mOhm


Notice from spectre during transient analysis `tran', during Monte Carlo analysis `mc1'.
    Multithreading is disabled due to the size of the design being too small.


Output and IC/nodeset summary:
                 save   8       (current)
                 save   87      (voltage)

    tran: time = 1.307 s     (2.61 %), step = 109.6 ms     (219 m%)
    tran: time = 3.87 s      (7.74 %), step = 335.2 ms     (670 m%)
    tran: time = 6.507 s       (13 %), step = 500 ms          (1 %)
    tran: time = 9.007 s       (18 %), step = 500 ms          (1 %)
    tran: time = 11.51 s       (23 %), step = 500 ms          (1 %)
    tran: time = 14.01 s       (28 %), step = 500 ms          (1 %)
    tran: time = 16.51 s       (33 %), step = 500 ms          (1 %)
    tran: time = 19.01 s       (38 %), step = 500 ms          (1 %)
    tran: time = 21.51 s       (43 %), step = 500 ms          (1 %)
    tran: time = 24.01 s       (48 %), step = 500 ms          (1 %)
    tran: time = 26.51 s       (53 %), step = 500 ms          (1 %)
    tran: time = 29.01 s       (58 %), step = 500 ms          (1 %)
    tran: time = 31.51 s       (63 %), step = 500 ms          (1 %)
    tran: time = 34.01 s       (68 %), step = 500 ms          (1 %)
    tran: time = 36.51 s       (73 %), step = 500 ms          (1 %)
    tran: time = 39.01 s       (78 %), step = 500 ms          (1 %)
    tran: time = 41.51 s       (83 %), step = 500 ms          (1 %)
    tran: time = 44.01 s       (88 %), step = 500 ms          (1 %)
    tran: time = 46.51 s       (93 %), step = 500 ms          (1 %)
    tran: time = 49.01 s       (98 %), step = 500 ms          (1 %)
Number of accepted tran steps =             738

Maximum value achieved for any signal of each quantity: 
V: V(S<0>) = 3.3 V
I: I(V8:p) = 6.445 uA

~~~~~~~~~~~~~~~~~~~~~~~~~~~~~~~~~
Post-Transient Simulation Summary
~~~~~~~~~~~~~~~~~~~~~~~~~~~~~~~~~
   -   To further speed up simulation, consider
          add ++aps on command line
   -   Non-default settings that could significantly slow down simulation
          errpreset = conservative, default moderate
          reltol = 10e-06, default 100e-06 (conservative)
~~~~~~~~~~~~~~~~~~~~~~~~~~~~~~~~~


During simulation, the CPU load for active processors is :
         0 (6.0 %)       1 (11.8 %)      2 (48.0 %)      3 (3.0 %)
         4 (89.7 %)      5 (10.1 %)      6 (10.7 %)      7 (6.5 %)
         8 (20.5 %)      9 (12.5 %)     10 (7.0 %)      11 (21.7 %)
        12 (24.3 %)     13 (18.4 %)     14 (3.2 %)      15 (77.5 %)
        16 (32.7 %)     17 (8.4 %)      18 (9.0 %)      19 (5.8 %)
        20 (100.0 %)    21 (26.1 %)     22 (51.3 %)     23 (6.0 %)
        24 (100.0 %)    25 (4.2 %)      26 (3.2 %)      27 (3.8 %)
        28 (55.0 %)     29 (3.9 %)      30 (12.9 %)     31 (79.6 %)
        32 (11.4 %)     33 (36.5 %)     34 (5.1 %)      35 (3.7 %)
        36 (61.2 %)     37 (5.5 %)      38 (26.8 %)     39 (38.4 %)
        40 (7.5 %)      41 (3.2 %)      42 (23.8 %)     43 (12.0 %)
        44 (7.5 %)      45 (36.5 %)     46 (22.3 %)     47 (19.4 %)
        Total: 1193.4%
Initial condition solution time: CPU = 2.672 ms, elapsed = 2.67291 ms.
Intrinsic tran analysis time:    CPU = 440.522 ms, elapsed = 441.906 ms.
Total time required for tran analysis `tran': CPU = 445.691 ms, elapsed = 447.656 ms, util. = 99.6%.
Time accumulated: CPU = 5.03025 s, elapsed = 5.88499 s.
Peak resident memory used = 213 Mbytes.


Notice from spectre during transient analysis `tran', during Monte Carlo analysis `mc1'.
    34 warnings suppressed.

finalTimeOP: writing operating point information to rawfile.

Opening the PSF file ../psf/mc1_separate/008/finalTimeOP.info ...
modelParameter: writing model parameter values to rawfile.

Opening the PSF file ../psf/mc1_separate/008/modelParameter.info ...
element: writing instance parameter values to rawfile.

Opening the PSF file ../psf/mc1_separate/008/element.info ...
outputParameter: writing output parameter values to rawfile.

Opening the PSF file ../psf/mc1_separate/008/outputParameter.info ...
designParamVals: writing netlist parameters to rawfile.

Opening the PSFASCII file ../psf/mc1_separate/008/designParamVals.info ...
primitives: writing primitives to rawfile.

Opening the PSFASCII file ../psf/mc1_separate/008/primitives.info.primitives ...
subckts: writing subcircuits to rawfile.

Opening the PSFASCII file ../psf/mc1_separate/008/subckts.info.subckts ...
    mc1: iteration = 8           (7.07 %), step = 1            (1.01 %)
9   8.08% 

*****************************************************************************************
* 
* INFO: AMS_processOption = C35B4C3
* 
* INFO: Valid Modules  PIP VG5 HIRES
* 
*****************************************************************************************


Notice from spectre during Monte Carlo analysis `mc1'.
    V8: `period' has the unusually large value of 100 s.


***********************************************
Transient Analysis `tran': time = (0 s -> 50 s)
***********************************************

Opening the PSF file ../psf/mc1_separate/009/tran.tran.tran ...

Warning from spectre during check, during IC analysis, during transient analysis `tran', during Monte Carlo analysis `mc1'.
    WARNING (CMI-2943): Parameter checks have been ignored because the valid value for parameter 'trise' could not be found in 'C1'.
    WARNING (CMI-2943): Parameter checks have been ignored because the valid value for parameter 'trise' could not be found in 'I0.R2.CM'.
    WARNING (CMI-2943): Parameter checks have been ignored because the valid value for parameter 'trise' could not be found in 'I0.R2.CS1'.
    WARNING (CMI-2943): Parameter checks have been ignored because the valid value for parameter 'trise' could not be found in 'I0.R2.CS0'.
    WARNING (CMI-2943): Parameter checks have been ignored because the valid value for parameter 'trise' could not be found in 'I0.C3.C1'.
        Further occurrences of this warning will be suppressed.

Convergence achieved in 12 iterations.
DC simulation time: CPU = 2.63 ms, elapsed = 2.63 ms.
Important parameter values:
    start = 0 s
    outputstart = 0 s
    stop = 50 s
    step = 50 ms
    maxstep = 500 ms
    ic = all
    useprevic = no
    skipdc = no
    reltol = 10e-06
    abstol(V) = 1 uV
    abstol(I) = 1 pA
    temp = 85 C
    tnom = 27 C
    tempeffects = all
    errpreset = conservative
    method = gear2only
    lteratio = 10
    relref = alllocal
    cmin = 0 F
    gmin = 1 pS
    rabsshort = 1 mOhm


Notice from spectre during transient analysis `tran', during Monte Carlo analysis `mc1'.
    Multithreading is disabled due to the size of the design being too small.


Output and IC/nodeset summary:
                 save   8       (current)
                 save   87      (voltage)

    tran: time = 1.271 s     (2.54 %), step = 103.2 ms     (206 m%)
    tran: time = 4.045 s     (8.09 %), step = 347.1 ms     (694 m%)
    tran: time = 6.743 s     (13.5 %), step = 500 ms          (1 %)
    tran: time = 9.243 s     (18.5 %), step = 500 ms          (1 %)
    tran: time = 11.74 s     (23.5 %), step = 500 ms          (1 %)
    tran: time = 14.24 s     (28.5 %), step = 500 ms          (1 %)
    tran: time = 16.74 s     (33.5 %), step = 500 ms          (1 %)
    tran: time = 19.24 s     (38.5 %), step = 500 ms          (1 %)
    tran: time = 21.74 s     (43.5 %), step = 500 ms          (1 %)
    tran: time = 24.24 s     (48.5 %), step = 500 ms          (1 %)
    tran: time = 26.74 s     (53.5 %), step = 500 ms          (1 %)
    tran: time = 29.24 s     (58.5 %), step = 500 ms          (1 %)
    tran: time = 31.74 s     (63.5 %), step = 500 ms          (1 %)
    tran: time = 34.24 s     (68.5 %), step = 500 ms          (1 %)
    tran: time = 36.74 s     (73.5 %), step = 500 ms          (1 %)
    tran: time = 39.24 s     (78.5 %), step = 500 ms          (1 %)
    tran: time = 41.74 s     (83.5 %), step = 500 ms          (1 %)
    tran: time = 44.24 s     (88.5 %), step = 500 ms          (1 %)
    tran: time = 46.74 s     (93.5 %), step = 500 ms          (1 %)
    tran: time = 49.24 s     (98.5 %), step = 500 ms          (1 %)
Number of accepted tran steps =             742

Maximum value achieved for any signal of each quantity: 
V: V(S<0>) = 3.3 V
I: I(V8:p) = 6.31 uA

~~~~~~~~~~~~~~~~~~~~~~~~~~~~~~~~~
Post-Transient Simulation Summary
~~~~~~~~~~~~~~~~~~~~~~~~~~~~~~~~~
   -   To further speed up simulation, consider
          add ++aps on command line
   -   Non-default settings that could significantly slow down simulation
          errpreset = conservative, default moderate
          reltol = 10e-06, default 100e-06 (conservative)
~~~~~~~~~~~~~~~~~~~~~~~~~~~~~~~~~


During simulation, the CPU load for active processors is :
         0 (5.9 %)       1 (11.2 %)      2 (50.3 %)      3 (3.4 %)
         4 (84.4 %)      5 (9.9 %)       6 (10.0 %)      7 (9.5 %)
         8 (19.4 %)      9 (11.8 %)     10 (6.8 %)      11 (20.1 %)
        12 (22.8 %)     13 (17.0 %)     14 (10.7 %)     15 (79.3 %)
        16 (30.4 %)     17 (7.9 %)      18 (8.9 %)      19 (5.3 %)
        20 (100.0 %)    21 (32.3 %)     22 (47.6 %)     23 (6.5 %)
        24 (100.0 %)    25 (4.2 %)      26 (3.1 %)      27 (3.8 %)
        28 (53.3 %)     29 (3.9 %)      30 (17.3 %)     31 (74.4 %)
        32 (17.2 %)     33 (35.3 %)     34 (4.7 %)      35 (3.5 %)
        36 (56.4 %)     37 (5.0 %)      38 (24.8 %)     39 (35.3 %)
        40 (7.1 %)      41 (3.1 %)      42 (24.4 %)     43 (11.1 %)
        44 (14.1 %)     45 (41.6 %)     46 (28.7 %)     47 (18.3 %)
        Total: 1201.9%
Initial condition solution time: CPU = 2.699 ms, elapsed = 2.69985 ms.
Intrinsic tran analysis time:    CPU = 455.624 ms, elapsed = 458.041 ms.
Total time required for tran analysis `tran': CPU = 461.225 ms, elapsed = 464.115 ms, util. = 99.4%.
Time accumulated: CPU = 5.53668 s, elapsed = 6.40446 s.
Peak resident memory used = 213 Mbytes.


Notice from spectre during transient analysis `tran', during Monte Carlo analysis `mc1'.
    34 warnings suppressed.

finalTimeOP: writing operating point information to rawfile.

Opening the PSF file ../psf/mc1_separate/009/finalTimeOP.info ...
modelParameter: writing model parameter values to rawfile.

Opening the PSF file ../psf/mc1_separate/009/modelParameter.info ...
element: writing instance parameter values to rawfile.

Opening the PSF file ../psf/mc1_separate/009/element.info ...
outputParameter: writing output parameter values to rawfile.

Opening the PSF file ../psf/mc1_separate/009/outputParameter.info ...
designParamVals: writing netlist parameters to rawfile.

Opening the PSFASCII file ../psf/mc1_separate/009/designParamVals.info ...
primitives: writing primitives to rawfile.

Opening the PSFASCII file ../psf/mc1_separate/009/primitives.info.primitives ...
subckts: writing subcircuits to rawfile.

Opening the PSFASCII file ../psf/mc1_separate/009/subckts.info.subckts ...
    mc1: iteration = 9           (8.08 %), step = 1            (1.01 %)
10   9.09% 

*****************************************************************************************
* 
* INFO: AMS_processOption = C35B4C3
* 
* INFO: Valid Modules  PIP VG5 HIRES
* 
*****************************************************************************************


Notice from spectre during Monte Carlo analysis `mc1'.
    V8: `period' has the unusually large value of 100 s.


***********************************************
Transient Analysis `tran': time = (0 s -> 50 s)
***********************************************

Opening the PSF file ../psf/mc1_separate/010/tran.tran.tran ...

Warning from spectre during check, during IC analysis, during transient analysis `tran', during Monte Carlo analysis `mc1'.
    WARNING (CMI-2943): Parameter checks have been ignored because the valid value for parameter 'trise' could not be found in 'C1'.
    WARNING (CMI-2943): Parameter checks have been ignored because the valid value for parameter 'trise' could not be found in 'I0.R2.CM'.
    WARNING (CMI-2943): Parameter checks have been ignored because the valid value for parameter 'trise' could not be found in 'I0.R2.CS1'.
    WARNING (CMI-2943): Parameter checks have been ignored because the valid value for parameter 'trise' could not be found in 'I0.R2.CS0'.
    WARNING (CMI-2943): Parameter checks have been ignored because the valid value for parameter 'trise' could not be found in 'I0.C3.C1'.
        Further occurrences of this warning will be suppressed.

Convergence achieved in 12 iterations.
DC simulation time: CPU = 2.649 ms, elapsed = 2.65503 ms.
Important parameter values:
    start = 0 s
    outputstart = 0 s
    stop = 50 s
    step = 50 ms
    maxstep = 500 ms
    ic = all
    useprevic = no
    skipdc = no
    reltol = 10e-06
    abstol(V) = 1 uV
    abstol(I) = 1 pA
    temp = 85 C
    tnom = 27 C
    tempeffects = all
    errpreset = conservative
    method = gear2only
    lteratio = 10
    relref = alllocal
    cmin = 0 F
    gmin = 1 pS
    rabsshort = 1 mOhm


Notice from spectre during transient analysis `tran', during Monte Carlo analysis `mc1'.
    Multithreading is disabled due to the size of the design being too small.


Output and IC/nodeset summary:
                 save   8       (current)
                 save   87      (voltage)

    tran: time = 1.351 s      (2.7 %), step = 117 ms       (234 m%)
    tran: time = 4.073 s     (8.15 %), step = 353.2 ms     (706 m%)
    tran: time = 6.292 s     (12.6 %), step = 500 ms          (1 %)
    tran: time = 8.792 s     (17.6 %), step = 500 ms          (1 %)
    tran: time = 11.29 s     (22.6 %), step = 500 ms          (1 %)
    tran: time = 13.79 s     (27.6 %), step = 500 ms          (1 %)
    tran: time = 16.29 s     (32.6 %), step = 500 ms          (1 %)
    tran: time = 18.79 s     (37.6 %), step = 500 ms          (1 %)
    tran: time = 21.29 s     (42.6 %), step = 500 ms          (1 %)
    tran: time = 23.79 s     (47.6 %), step = 500 ms          (1 %)
    tran: time = 26.29 s     (52.6 %), step = 500 ms          (1 %)
    tran: time = 28.79 s     (57.6 %), step = 500 ms          (1 %)
    tran: time = 31.29 s     (62.6 %), step = 500 ms          (1 %)
[...]


***********************************************
Transient Analysis `tran': time = (0 s -> 50 s)
***********************************************

Opening the PSF file ../psf/mc1_separate/098/tran.tran.tran ...

Warning from spectre during check, during IC analysis, during transient analysis `tran', during Monte Carlo analysis `mc1'.
    WARNING (CMI-2943): Parameter checks have been ignored because the valid value for parameter 'trise' could not be found in 'C1'.
    WARNING (CMI-2943): Parameter checks have been ignored because the valid value for parameter 'trise' could not be found in 'I0.R2.CM'.
    WARNING (CMI-2943): Parameter checks have been ignored because the valid value for parameter 'trise' could not be found in 'I0.R2.CS1'.
    WARNING (CMI-2943): Parameter checks have been ignored because the valid value for parameter 'trise' could not be found in 'I0.R2.CS0'.
    WARNING (CMI-2943): Parameter checks have been ignored because the valid value for parameter 'trise' could not be found in 'I0.C3.C1'.
        Further occurrences of this warning will be suppressed.

Convergence achieved in 12 iterations.
DC simulation time: CPU = 2.544 ms, elapsed = 2.56014 ms.
Important parameter values:
    start = 0 s
    outputstart = 0 s
    stop = 50 s
    step = 50 ms
    maxstep = 500 ms
    ic = all
    useprevic = no
    skipdc = no
    reltol = 10e-06
    abstol(V) = 1 uV
    abstol(I) = 1 pA
    temp = 85 C
    tnom = 27 C
    tempeffects = all
    errpreset = conservative
    method = gear2only
    lteratio = 10
    relref = alllocal
    cmin = 0 F
    gmin = 1 pS
    rabsshort = 1 mOhm


Notice from spectre during transient analysis `tran', during Monte Carlo analysis `mc1'.
    Multithreading is disabled due to the size of the design being too small.


Output and IC/nodeset summary:
                 save   8       (current)
                 save   87      (voltage)

    tran: time = 1.261 s     (2.52 %), step = 106.4 ms     (213 m%)
    tran: time = 3.755 s     (7.51 %), step = 326.6 ms     (653 m%)
    tran: time = 6.339 s     (12.7 %), step = 500 ms          (1 %)
    tran: time = 8.839 s     (17.7 %), step = 500 ms          (1 %)
    tran: time = 11.34 s     (22.7 %), step = 500 ms          (1 %)
    tran: time = 13.84 s     (27.7 %), step = 500 ms          (1 %)
    tran: time = 16.34 s     (32.7 %), step = 500 ms          (1 %)
    tran: time = 18.84 s     (37.7 %), step = 500 ms          (1 %)
    tran: time = 21.34 s     (42.7 %), step = 500 ms          (1 %)
    tran: time = 23.84 s     (47.7 %), step = 500 ms          (1 %)
    tran: time = 26.34 s     (52.7 %), step = 500 ms          (1 %)
    tran: time = 28.84 s     (57.7 %), step = 500 ms          (1 %)
    tran: time = 31.34 s     (62.7 %), step = 500 ms          (1 %)
    tran: time = 33.84 s     (67.7 %), step = 500 ms          (1 %)
    tran: time = 36.34 s     (72.7 %), step = 500 ms          (1 %)
    tran: time = 38.84 s     (77.7 %), step = 500 ms          (1 %)
    tran: time = 41.34 s     (82.7 %), step = 500 ms          (1 %)
    tran: time = 43.84 s     (87.7 %), step = 500 ms          (1 %)
    tran: time = 46.34 s     (92.7 %), step = 500 ms          (1 %)
    tran: time = 48.84 s     (97.7 %), step = 500 ms          (1 %)
Number of accepted tran steps =             743

Maximum value achieved for any signal of each quantity: 
V: V(S<0>) = 3.3 V
I: I(V8:p) = 6.328 uA

~~~~~~~~~~~~~~~~~~~~~~~~~~~~~~~~~
Post-Transient Simulation Summary
~~~~~~~~~~~~~~~~~~~~~~~~~~~~~~~~~
   -   To further speed up simulation, consider
          add ++aps on command line
   -   Non-default settings that could significantly slow down simulation
          errpreset = conservative, default moderate
          reltol = 10e-06, default 100e-06 (conservative)
~~~~~~~~~~~~~~~~~~~~~~~~~~~~~~~~~


During simulation, the CPU load for active processors is :
         0 (45.9 %)      1 (22.2 %)      2 (28.1 %)      3 (15.0 %)
         4 (51.9 %)      5 (14.0 %)      6 (7.4 %)       7 (9.5 %)
         8 (18.0 %)      9 (5.6 %)      10 (10.7 %)     11 (14.4 %)
        12 (34.2 %)     13 (8.0 %)      14 (48.6 %)     15 (41.1 %)
        16 (17.9 %)     17 (27.0 %)     18 (25.9 %)     19 (44.4 %)
        20 (44.6 %)     21 (50.7 %)     22 (39.9 %)     23 (19.4 %)
        24 (84.7 %)     25 (31.8 %)     26 (26.5 %)     27 (8.6 %)
        28 (43.0 %)     29 (17.1 %)     30 (15.1 %)     31 (32.3 %)
        32 (24.3 %)     33 (23.1 %)     34 (13.4 %)     35 (15.9 %)
        36 (30.6 %)     37 (30.0 %)     38 (11.6 %)     39 (24.4 %)
        40 (9.8 %)      41 (7.0 %)      42 (34.4 %)     43 (23.9 %)
        44 (29.0 %)     45 (44.2 %)     46 (36.2 %)     47 (24.1 %)
        Total: 1285.2%
Initial condition solution time: CPU = 2.585 ms, elapsed = 2.60305 ms.
Intrinsic tran analysis time:    CPU = 442.14 ms, elapsed = 443.521 ms.
Total time required for tran analysis `tran': CPU = 447.461 ms, elapsed = 449.433 ms, util. = 99.6%.
Time accumulated: CPU = 49.9229 s, elapsed = 51.9374 s.
Peak resident memory used = 214 Mbytes.


Notice from spectre during transient analysis `tran', during Monte Carlo analysis `mc1'.
    34 warnings suppressed.

finalTimeOP: writing operating point information to rawfile.

Opening the PSF file ../psf/mc1_separate/098/finalTimeOP.info ...
modelParameter: writing model parameter values to rawfile.

Opening the PSF file ../psf/mc1_separate/098/modelParameter.info ...
element: writing instance parameter values to rawfile.

Opening the PSF file ../psf/mc1_separate/098/element.info ...
outputParameter: writing output parameter values to rawfile.

Opening the PSF file ../psf/mc1_separate/098/outputParameter.info ...
designParamVals: writing netlist parameters to rawfile.

Opening the PSFASCII file ../psf/mc1_separate/098/designParamVals.info ...
primitives: writing primitives to rawfile.

Opening the PSFASCII file ../psf/mc1_separate/098/primitives.info.primitives ...
subckts: writing subcircuits to rawfile.

Opening the PSFASCII file ../psf/mc1_separate/098/subckts.info.subckts ...
    mc1: iteration = 98            (98 %), step = 1            (1.01 %)
99  98.99% 

*****************************************************************************************
* 
* INFO: AMS_processOption = C35B4C3
* 
* INFO: Valid Modules  PIP VG5 HIRES
* 
*****************************************************************************************


Notice from spectre during Monte Carlo analysis `mc1'.
    V8: `period' has the unusually large value of 100 s.


***********************************************
Transient Analysis `tran': time = (0 s -> 50 s)
***********************************************

Opening the PSF file ../psf/mc1_separate/099/tran.tran.tran ...

Warning from spectre during check, during IC analysis, during transient analysis `tran', during Monte Carlo analysis `mc1'.
    WARNING (CMI-2943): Parameter checks have been ignored because the valid value for parameter 'trise' could not be found in 'C1'.
    WARNING (CMI-2943): Parameter checks have been ignored because the valid value for parameter 'trise' could not be found in 'I0.R2.CM'.
    WARNING (CMI-2943): Parameter checks have been ignored because the valid value for parameter 'trise' could not be found in 'I0.R2.CS1'.
    WARNING (CMI-2943): Parameter checks have been ignored because the valid value for parameter 'trise' could not be found in 'I0.R2.CS0'.
    WARNING (CMI-2943): Parameter checks have been ignored because the valid value for parameter 'trise' could not be found in 'I0.C3.C1'.
        Further occurrences of this warning will be suppressed.

Convergence achieved in 12 iterations.
DC simulation time: CPU = 2.538 ms, elapsed = 2.53892 ms.
Important parameter values:
    start = 0 s
    outputstart = 0 s
    stop = 50 s
    step = 50 ms
    maxstep = 500 ms
    ic = all
    useprevic = no
    skipdc = no
    reltol = 10e-06
    abstol(V) = 1 uV
    abstol(I) = 1 pA
    temp = 85 C
    tnom = 27 C
    tempeffects = all
    errpreset = conservative
    method = gear2only
    lteratio = 10
    relref = alllocal
    cmin = 0 F
    gmin = 1 pS
    rabsshort = 1 mOhm


Notice from spectre during transient analysis `tran', during Monte Carlo analysis `mc1'.
    Multithreading is disabled due to the size of the design being too small.


Output and IC/nodeset summary:
                 save   8       (current)
                 save   87      (voltage)

    tran: time = 1.344 s     (2.69 %), step = 115.3 ms     (231 m%)
    tran: time = 4.03 s      (8.06 %), step = 349.5 ms     (699 m%)
    tran: time = 6.735 s     (13.5 %), step = 500 ms          (1 %)
    tran: time = 9.235 s     (18.5 %), step = 500 ms          (1 %)
    tran: time = 11.73 s     (23.5 %), step = 500 ms          (1 %)
    tran: time = 14.23 s     (28.5 %), step = 500 ms          (1 %)
    tran: time = 16.73 s     (33.5 %), step = 500 ms          (1 %)
    tran: time = 19.23 s     (38.5 %), step = 500 ms          (1 %)
    tran: time = 21.73 s     (43.5 %), step = 500 ms          (1 %)
    tran: time = 24.23 s     (48.5 %), step = 500 ms          (1 %)
    tran: time = 26.73 s     (53.5 %), step = 500 ms          (1 %)
    tran: time = 29.23 s     (58.5 %), step = 500 ms          (1 %)
    tran: time = 31.73 s     (63.5 %), step = 500 ms          (1 %)
    tran: time = 34.23 s     (68.5 %), step = 500 ms          (1 %)
    tran: time = 36.73 s     (73.5 %), step = 500 ms          (1 %)
    tran: time = 39.23 s     (78.5 %), step = 500 ms          (1 %)
    tran: time = 41.73 s     (83.5 %), step = 500 ms          (1 %)
    tran: time = 44.23 s     (88.5 %), step = 500 ms          (1 %)
    tran: time = 46.73 s     (93.5 %), step = 500 ms          (1 %)
    tran: time = 49.23 s     (98.5 %), step = 500 ms          (1 %)
Number of accepted tran steps =             735

Maximum value achieved for any signal of each quantity: 
V: V(S<0>) = 3.3 V
I: I(V8:p) = 6.291 uA

~~~~~~~~~~~~~~~~~~~~~~~~~~~~~~~~~
Post-Transient Simulation Summary
~~~~~~~~~~~~~~~~~~~~~~~~~~~~~~~~~
   -   To further speed up simulation, consider
          add ++aps on command line
   -   Non-default settings that could significantly slow down simulation
          errpreset = conservative, default moderate
          reltol = 10e-06, default 100e-06 (conservative)
~~~~~~~~~~~~~~~~~~~~~~~~~~~~~~~~~


During simulation, the CPU load for active processors is :
         0 (45.5 %)      1 (23.0 %)      2 (27.9 %)      3 (15.8 %)
         4 (51.5 %)      5 (14.0 %)      6 (7.4 %)       7 (9.4 %)
         8 (18.4 %)      9 (5.5 %)      10 (10.8 %)     11 (14.4 %)
        12 (34.8 %)     13 (8.0 %)      14 (49.1 %)     15 (40.7 %)
        16 (17.8 %)     17 (26.7 %)     18 (25.6 %)     19 (44.1 %)
        20 (44.2 %)     21 (51.1 %)     22 (39.7 %)     23 (20.2 %)
        24 (83.9 %)     25 (32.4 %)     26 (26.2 %)     27 (8.6 %)
        28 (43.5 %)     29 (17.9 %)     30 (15.0 %)     31 (32.0 %)
        32 (24.0 %)     33 (22.9 %)     34 (13.3 %)     35 (15.8 %)
        36 (30.3 %)     37 (29.7 %)     38 (12.5 %)     39 (24.2 %)
        40 (9.8 %)      41 (7.0 %)      42 (34.3 %)     43 (23.7 %)
        44 (28.7 %)     45 (43.8 %)     46 (36.0 %)     47 (23.9 %)
        Total: 1284.7%
Initial condition solution time: CPU = 2.587 ms, elapsed = 2.58994 ms.
Intrinsic tran analysis time:    CPU = 437.85 ms, elapsed = 439.464 ms.
Total time required for tran analysis `tran': CPU = 443.298 ms, elapsed = 445.478 ms, util. = 99.5%.
Time accumulated: CPU = 50.4085 s, elapsed = 52.4356 s.
Peak resident memory used = 214 Mbytes.


Notice from spectre during transient analysis `tran', during Monte Carlo analysis `mc1'.
    34 warnings suppressed.

finalTimeOP: writing operating point information to rawfile.

Opening the PSF file ../psf/mc1_separate/099/finalTimeOP.info ...
modelParameter: writing model parameter values to rawfile.

Opening the PSF file ../psf/mc1_separate/099/modelParameter.info ...
element: writing instance parameter values to rawfile.

Opening the PSF file ../psf/mc1_separate/099/element.info ...
outputParameter: writing output parameter values to rawfile.

Opening the PSF file ../psf/mc1_separate/099/outputParameter.info ...
designParamVals: writing netlist parameters to rawfile.

Opening the PSFASCII file ../psf/mc1_separate/099/designParamVals.info ...
primitives: writing primitives to rawfile.

Opening the PSFASCII file ../psf/mc1_separate/099/primitives.info.primitives ...
subckts: writing subcircuits to rawfile.

Opening the PSFASCII file ../psf/mc1_separate/099/subckts.info.subckts ...
    mc1: iteration = 99            (99 %), step = 1            (1.01 %)
100 100.00% 

*****************************************************************************************
* 
* INFO: AMS_processOption = C35B4C3
* 
* INFO: Valid Modules  PIP VG5 HIRES
* 
*****************************************************************************************


Notice from spectre during Monte Carlo analysis `mc1'.
    V8: `period' has the unusually large value of 100 s.


***********************************************
Transient Analysis `tran': time = (0 s -> 50 s)
***********************************************

Opening the PSF file ../psf/mc1_separate/100/tran.tran.tran ...

Warning from spectre during check, during IC analysis, during transient analysis `tran', during Monte Carlo analysis `mc1'.
    WARNING (CMI-2943): Parameter checks have been ignored because the valid value for parameter 'trise' could not be found in 'C1'.
    WARNING (CMI-2943): Parameter checks have been ignored because the valid value for parameter 'trise' could not be found in 'I0.R2.CM'.
    WARNING (CMI-2943): Parameter checks have been ignored because the valid value for parameter 'trise' could not be found in 'I0.R2.CS1'.
    WARNING (CMI-2943): Parameter checks have been ignored because the valid value for parameter 'trise' could not be found in 'I0.R2.CS0'.
    WARNING (CMI-2943): Parameter checks have been ignored because the valid value for parameter 'trise' could not be found in 'I0.C3.C1'.
        Further occurrences of this warning will be suppressed.

Convergence achieved in 12 iterations.
DC simulation time: CPU = 2.342 ms, elapsed = 2.34294 ms.
Important parameter values:
    start = 0 s
    outputstart = 0 s
    stop = 50 s
    step = 50 ms
    maxstep = 500 ms
    ic = all
    useprevic = no
    skipdc = no
    reltol = 10e-06
    abstol(V) = 1 uV
    abstol(I) = 1 pA
    temp = 85 C
    tnom = 27 C
    tempeffects = all
    errpreset = conservative
    method = gear2only
    lteratio = 10
    relref = alllocal
    cmin = 0 F
    gmin = 1 pS
    rabsshort = 1 mOhm


Notice from spectre during transient analysis `tran', during Monte Carlo analysis `mc1'.
    Multithreading is disabled due to the size of the design being too small.


Output and IC/nodeset summary:
                 save   8       (current)
                 save   87      (voltage)

    tran: time = 1.332 s     (2.66 %), step = 114 ms       (228 m%)
    tran: time = 3.99 s      (7.98 %), step = 346.2 ms     (692 m%)
    tran: time = 6.68 s      (13.4 %), step = 500 ms          (1 %)
    tran: time = 9.18 s      (18.4 %), step = 500 ms          (1 %)
    tran: time = 11.68 s     (23.4 %), step = 500 ms          (1 %)
    tran: time = 14.18 s     (28.4 %), step = 500 ms          (1 %)
    tran: time = 16.68 s     (33.4 %), step = 500 ms          (1 %)
    tran: time = 19.18 s     (38.4 %), step = 500 ms          (1 %)
    tran: time = 21.68 s     (43.4 %), step = 500 ms          (1 %)
    tran: time = 24.18 s     (48.4 %), step = 500 ms          (1 %)
    tran: time = 26.68 s     (53.4 %), step = 500 ms          (1 %)
    tran: time = 29.18 s     (58.4 %), step = 500 ms          (1 %)
    tran: time = 31.68 s     (63.4 %), step = 500 ms          (1 %)
    tran: time = 34.18 s     (68.4 %), step = 500 ms          (1 %)
    tran: time = 36.68 s     (73.4 %), step = 500 ms          (1 %)
    tran: time = 39.18 s     (78.4 %), step = 500 ms          (1 %)
    tran: time = 41.68 s     (83.4 %), step = 500 ms          (1 %)
    tran: time = 44.18 s     (88.4 %), step = 500 ms          (1 %)
    tran: time = 46.68 s     (93.4 %), step = 500 ms          (1 %)
    tran: time = 49.18 s     (98.4 %), step = 500 ms          (1 %)
Number of accepted tran steps =             736

Maximum value achieved for any signal of each quantity: 
V: V(S<0>) = 3.3 V
I: I(V8:p) = 6.583 uA

~~~~~~~~~~~~~~~~~~~~~~~~~~~~~~~~~
Post-Transient Simulation Summary
~~~~~~~~~~~~~~~~~~~~~~~~~~~~~~~~~
   -   To further speed up simulation, consider
          add ++aps on command line
   -   Non-default settings that could significantly slow down simulation
          errpreset = conservative, default moderate
          reltol = 10e-06, default 100e-06 (conservative)
~~~~~~~~~~~~~~~~~~~~~~~~~~~~~~~~~


During simulation, the CPU load for active processors is :
         0 (45.1 %)      1 (23.7 %)      2 (27.9 %)      3 (16.6 %)
         4 (51.0 %)      5 (13.9 %)      6 (7.3 %)       7 (9.3 %)
         8 (18.3 %)      9 (5.5 %)      10 (10.8 %)     11 (14.3 %)
        12 (35.4 %)     13 (7.9 %)      14 (49.6 %)     15 (40.3 %)
        16 (17.6 %)     17 (26.5 %)     18 (25.4 %)     19 (43.7 %)
        20 (43.9 %)     21 (51.6 %)     22 (39.5 %)     23 (20.9 %)
        24 (83.2 %)     25 (33.1 %)     26 (26.0 %)     27 (8.6 %)
        28 (44.0 %)     29 (18.4 %)     30 (14.9 %)     31 (31.7 %)
        32 (23.8 %)     33 (22.7 %)     34 (13.2 %)     35 (15.8 %)
        36 (30.4 %)     37 (29.5 %)     38 (13.3 %)     39 (24.1 %)
        40 (9.7 %)      41 (7.0 %)      42 (34.9 %)     43 (23.5 %)
        44 (28.5 %)     45 (43.4 %)     46 (35.8 %)     47 (23.8 %)
        Total: 1285.2%
Initial condition solution time: CPU = 2.402 ms, elapsed = 2.40397 ms.
Intrinsic tran analysis time:    CPU = 437.413 ms, elapsed = 438.715 ms.
Total time required for tran analysis `tran': CPU = 442.106 ms, elapsed = 443.958 ms, util. = 99.6%.
Time accumulated: CPU = 50.8914 s, elapsed = 52.9297 s.
Peak resident memory used = 214 Mbytes.


Notice from spectre during transient analysis `tran', during Monte Carlo analysis `mc1'.
    34 warnings suppressed.

finalTimeOP: writing operating point information to rawfile.

Opening the PSF file ../psf/mc1_separate/100/finalTimeOP.info ...
modelParameter: writing model parameter values to rawfile.

Opening the PSF file ../psf/mc1_separate/100/modelParameter.info ...
element: writing instance parameter values to rawfile.

Opening the PSF file ../psf/mc1_separate/100/element.info ...
outputParameter: writing output parameter values to rawfile.

Opening the PSF file ../psf/mc1_separate/100/outputParameter.info ...
designParamVals: writing netlist parameters to rawfile.

Opening the PSFASCII file ../psf/mc1_separate/100/designParamVals.info ...
primitives: writing primitives to rawfile.

Opening the PSFASCII file ../psf/mc1_separate/100/primitives.info.primitives ...
subckts: writing subcircuits to rawfile.

Opening the PSFASCII file ../psf/mc1_separate/100/subckts.info.subckts ...
    mc1: iteration = 100          (100 %), step = 1            (1.01 %)
Total time required for montecarlo analysis `mc1': CPU = 50.432 s, elapsed = 51.7355 s, util. = 97.5%.
Time accumulated: CPU = 50.919 s, elapsed = 52.9684 s.
Peak resident memory used = 214 Mbytes.

Licensing Information:
Lic Summary:
[16:46:57.292169] Cdslmd servers:3000@lic08.ug.kth.se:29000@lic06.ug.kth.se
[16:46:57.816497] Feature usage summary:
[16:46:57.816504] Virtuoso_Multi_mode_Simulation


Aggregate audit (4:46:57 PM, Wed Apr 15, 2026):
Time used: CPU = 50.9 s, elapsed = 53 s, util. = 96.1%.
Time spent in licensing: elapsed = 167 ms.
Peak memory used = 215 Mbytes.
Simulation started at: 4:46:04 PM, Wed Apr 15, 2026, ended at: 4:46:57 PM, Wed Apr 15, 2026, with elapsed time (wall clock): 53 s.
spectre completes with 0 errors, 522 warnings, and 310 notices.
