
Spectre (R) Circuit Simulator
Version 24.1.0.288.isr5 64bit -- 3 Apr 2025
Copyright (C) 1989-2025 Cadence Design Systems, Inc. All rights reserved worldwide. Cadence and Spectre are registered trademarks of Cadence Design Systems, Inc. All others are the property of their respective holders.

Includes RSA BSAFE(R) Cryptographic or Security Protocol Software from RSA Security, Inc.

User: davidevi   Host: il2244vt26_davidevi   HostID: 11AC2C00   PID: 405326
Memory  available: 3.0832 TB  physical: 3.2467 TB
Linux   : Rocky Linux release 8.10 (Green Obsidian)
CPU Type: Intel(R) Xeon(R) CPU E7-8857 v2 @ 3.00GHz
        Socket: Processors [Frequency]
        0:       0 [2300.0],  1 [1200.0],  2 [2999.9],  3 [2999.9],  4 [1200.0]
                 5 [1200.0],  6 [1200.0],  7 [1200.0],  8 [1200.0],  9 [3600.0]
                10 [1200.0], 11 [1200.0]
        1:      12 [1200.0], 13 [1200.0], 14 [1200.0], 15 [1200.0], 16 [1200.0]
                17 [1200.0], 18 [2999.9], 19 [1200.0], 20 [1200.0], 21 [1200.0]
                22 [1200.0], 23 [1200.0]
        2:      24 [3402.5], 25 [2300.0], 26 [1200.0], 27 [3402.8], 28 [1200.0]
                29 [1200.0], 30 [1200.0], 31 [1200.0], 32 [1200.0], 33 [1200.0]
                34 [1200.0], 35 [1200.0]
        3:      36 [1200.0], 37 [2400.0], 38 [1200.0], 39 [2400.0], 40 [3600.0]
                41 [1200.0], 42 [2853.9], 43 [2999.9], 44 [3600.0], 45 [1200.0]
                46 [3400.0], 47 [2999.9]
        
System load averages (1min, 5min, 15min) : 14.3 %, 13.1 %, 12.6 %
HPC is enabled


Simulating `input.scs' on il2244vt26_davidevi at 9:48:10 AM, Fri Mar 13, 2026 (process id: 405326).
Current working directory: /home/davidevi/Desktop/myproject/Sim/ecg_vga_tb/spectre/schematic/netlist
Command line:
    /opt/tools/cadence/installs/SPECTRE241/tools/bin/spectre -64  \
        input.scs +escchars +log ../psf/spectre.out -format psfbin  \
        +rtsf -raw ../psf +aps +mt +lqtimeout 900 -maxw 5 -maxn 5  \
        +param /opt/pdk/ams/410/spectre/ams_range.lmts -env ade  \
        +adespetkn=adespe

Licensing Information:
[09:48:10.121778] Configured Lic search path (24.01-s002): 3000@lic08.ug.kth.se:29000@lic06.ug.kth.se

Licensing Information:
[09:48:10.255603] Periodic Lic check successful

Loading /opt/tools/cadence/installs/SPECTRE241/tools.lnx86/cmi/lib/64bit/5.0/libinfineon_sh.so ...
Loading /opt/tools/cadence/installs/SPECTRE241/tools.lnx86/cmi/lib/64bit/5.0/libphilips_I_sh.so ...
Loading /opt/tools/cadence/installs/SPECTRE241/tools.lnx86/cmi/lib/64bit/5.0/libphilips_sh.so ...
Loading /opt/tools/cadence/installs/SPECTRE241/tools.lnx86/cmi/lib/64bit/5.0/libsparam_sh.so ...
Loading /opt/tools/cadence/installs/SPECTRE241/tools.lnx86/cmi/lib/64bit/5.0/libstmodels_sh.so ...

Warning from spectre.
    WARNING (SPECTRE-691): This CPU processor does not support x86 advanced vector extensions instructions. This may affect math operations and slow down the simulation.

Reading file:  /home/davidevi/Desktop/myproject/Sim/ecg_vga_tb/spectre/schematic/netlist/input.scs
Reading file:  /opt/pdk/ams/410/spectre/ams_range.lmts

Warning from spectre during read of parameter soft limits file `/opt/pdk/ams/410/spectre/ams_range.lmts', during circuit read-in.
    WARNING (SPECTRE-8360): line 1511: `ac' is an undefined primitive device.
    WARNING (SPECTRE-8360): line 1512: `ac' is an undefined primitive device.
    WARNING (SPECTRE-8360): line 1513: `ac' is an undefined primitive device.
    WARNING (SPECTRE-8360): line 1514: `ac' is an undefined primitive device.
    WARNING (SPECTRE-8360): line 1515: `ac' is an undefined primitive device.
        Further occurrences of this warning will be suppressed.

Reading file:  /opt/tools/cadence/installs/SPECTRE241/tools.lnx86/spectre/etc/configs/spectre.cfg
Reading file:  /opt/pdk/ams/410/spectre/c35/soac/soac.scs
Reading file:  /opt/pdk/ams/410/spectre/c35/soac/processOption.scs
Reading file:  /opt/pdk/ams/410/spectre/c35/soac/process.scs
Reading file:  /opt/pdk/ams/410/spectre/c35/soac/soac.va

Warning from spectre during AHDL read-in.
    WARNING (VACOMP-2435): The environment variable CDS_AHDLCMI_ENABLE is no longer supported. Therefore, the simulator will use the default compiled C code flow.

Reading link:  /opt/tools/cadence/installs/SPECTRE241/tools.lnx86/spectre/etc/ahdl/constants.h
Reading file:  /opt/tools/cadence/installs/SPECTRE241/tools.lnx86/spectre/etc/ahdl/constants.vams
Reading link:  /opt/tools/cadence/installs/SPECTRE241/tools.lnx86/spectre/etc/ahdl/discipline.h
Reading file:  /opt/tools/cadence/installs/SPECTRE241/tools.lnx86/spectre/etc/ahdl/disciplines.vams
Reading file:  /opt/pdk/ams/410/spectre/c35/processOption/C35B4C3.scs
Reading file:  /opt/pdk/ams/410/spectre/c35/soac/cmos53.scs
Reading file:  /opt/pdk/ams/410/spectre/c35/soac/res.scs
Reading file:  /opt/pdk/ams/410/spectre/c35/soac/cap.scs
Reading file:  /opt/pdk/ams/410/spectre/c35/soac/bip.scs
Reading file:  /opt/pdk/ams/410/spectre/c35/soac/ind.scs
Reading file:  /opt/pdk/ams/410/spectre/c35/soac/esddiode.scs
Time for NDB Parsing: CPU = 375.359 ms, elapsed = 654.369 ms.
Time accumulated: CPU = 551.271 ms, elapsed = 654.372 ms.
Peak resident memory used = 197 Mbytes.

Created directory ./input.ahdlSimDB/ (775)
Created directory ./input.ahdlSimDB//3c9333c892e7ca8b855fbd0eadea8b27.modn_ahdl.ahdlcmi/ (775)
Created directory ./input.ahdlSimDB//3c9333c892e7ca8b855fbd0eadea8b27.modn_ahdl.ahdlcmi/Linux-64/ (775)
Compiling ahdlcmi module library for modn_ahdl.
Finished compilation in 1.4 s (elapsed) for modn_ahdl.
Installed compiled interface for modn_ahdl.
Opening directory ./input.ahdlSimDB/ (775)
Created directory ./input.ahdlSimDB//3c9333c892e7ca8b855fbd0eadea8b27.cpoly_ahdl.ahdlcmi/ (775)
Created directory ./input.ahdlSimDB//3c9333c892e7ca8b855fbd0eadea8b27.cpoly_ahdl.ahdlcmi/Linux-64/ (775)
Compiling ahdlcmi module library for cpoly_ahdl.
Finished compilation in 1.27 s (elapsed) for cpoly_ahdl.
Installed compiled interface for cpoly_ahdl.
Opening directory ./input.ahdlSimDB/ (775)
Created directory ./input.ahdlSimDB//3c9333c892e7ca8b855fbd0eadea8b27.modp_ahdl.ahdlcmi/ (775)
Created directory ./input.ahdlSimDB//3c9333c892e7ca8b855fbd0eadea8b27.modp_ahdl.ahdlcmi/Linux-64/ (775)
Compiling ahdlcmi module library for modp_ahdl.
Finished compilation in 1.3 s (elapsed) for modp_ahdl.
Installed compiled interface for modp_ahdl.
Time for Elaboration: CPU = 569.517 ms, elapsed = 4.56929 s.
Time accumulated: CPU = 1.12097 s, elapsed = 5.22385 s.
Peak resident memory used = 217 Mbytes.


Notice from spectre during hierarchy flattening.
    The value 'psf' specified for the 'checklimitdest' option will no longer be supported in future releases. Use 'spectre -h' to see other recommended values for the 'checklimitdest' option.


*****************************************************************************************
* 
* INFO: AMS_processOption = C35B4C3
* 
* INFO: Valid Modules  PIP VG5 HIRES
* 
*****************************************************************************************



Warning from spectre during hierarchy flattening.
    WARNING (SPECTRE-8527): There are some nodes and instances removed from the netlist topology check. Check the circuit and correct the topology. Or use preserve_inst to keep them if necessary.

***********************************************
  Total removed instances 1 ( dangling 0, terminals connected together 1)  

Warning from spectre during hierarchy flattening.
    WARNING (SPECTRE-8528): The I0.C5.C1 device is removed because its terminals are connected together. Check the device in the netlist file to ensure that this warning can be ignored.


  Total removed nodes 0 ( dangling nodes 0, floating nodes 0 )
***********************************************
Time for EDB Visiting: CPU = 5.846 ms, elapsed = 11.9262 ms.
Time accumulated: CPU = 1.127 s, elapsed = 5.23595 s.
Peak resident memory used = 218 Mbytes.

Loading /opt/tools/cadence/installs/SPECTRE241/tools.lnx86/mdl/lib/64bit/libSpectreEH_sh.so ...

Warning from spectre during initial setup.
    WARNING (SPECTRE-16460): SOAC_cvarm_vspsub:Specified subcircuit master `cvarm' was not found.
    WARNING (SPECTRE-16462): SOAC_cvarm_vspsub:Error in specification of subcircuit master. Assert is ignored.
    WARNING (SPECTRE-16460): SOAC_cvarm_vbs:Specified subcircuit master `cvarm' was not found.
    WARNING (SPECTRE-16462): SOAC_cvarm_vbs:Error in specification of subcircuit master. Assert is ignored.
    WARNING (SPECTRE-16460): SOAC_cvarm_vgb:Specified subcircuit master `cvarm' was not found.
    WARNING (SPECTRE-16462): SOAC_cvarm_vgb:Error in specification of subcircuit master. Assert is ignored.
    WARNING (SPECTRE-16460): SOAC_cvart_vspsub:Specified subcircuit master `cvart' was not found.
    WARNING (SPECTRE-16462): SOAC_cvart_vspsub:Error in specification of subcircuit master. Assert is ignored.
    WARNING (SPECTRE-16460): SOAC_cvart_vbs:Specified subcircuit master `cvart' was not found.
        Further occurrences of this warning will be suppressed.
    WARNING (SPECTRE-16462): SOAC_cvart_vbs:Error in specification of subcircuit master. Assert is ignored.
        Further occurrences of this warning will be suppressed.
Notice from spectre during topology check.
    Only one connection to the following 17 nodes:
        I0.MN9.psub!
        I0.MN7.psub!
        I0.MN17.psub!
        I0.MN16.psub!
        I0.MN15.psub!
        Further occurrences of this notice will be suppressed.
Notice from spectre during initial setup.
    Multithreading is disabled due to the size of the design being too small.


Netlist title:
        // Generated for: spectre


Global user options:
         psfversion = 1.4.0
            vabstol = 1e-06
            iabstol = 1e-12
               temp = 27
           homotopy = 5
              limit = delta
         compatible = spice2
               gmin = 1e-12
             rforce = 1
           maxnotes = 5
           maxwarns = 5
             digits = 5
               cols = 80
             pivrel = 0.001
           sensfile = ../psf/sens.output
     checklimitdest = psf
     enable_pre_ver = yes
      ignorezerovar = yes
               save = allpub
             reltol = 0.0001
               tnom = 27
             scalem = 1
              scale = 1

Scoped user options:

Circuit inventory:
              nodes 32
            bsim3v3 14    
          capacitor 8     
         cpoly_ahdl 3     
            isource 1     
          modn_ahdl 7     
          modp_ahdl 7     
            vsource 4     

Analysis and control statement inventory:
                 ac 1     
                 dc 1     
               info 8     
               tran 1     

Output statements:
             .probe 0     
           .measure 0     
               save 0     

Design checks inventory:
          paramtest 18    
             assert 175   


Notice from spectre during initial setup.
    APS enabled.
    1 notice suppressed.
    72 warnings suppressed.

Time for parsing: CPU = 14.497 ms, elapsed = 535.383 ms.
Time accumulated: CPU = 1.14161 s, elapsed = 5.77145 s.
Peak resident memory used = 224 Mbytes.

~~~~~~~~~~~~~~~~~~~~~~
Pre-Simulation Summary
~~~~~~~~~~~~~~~~~~~~~~
   -   (APS) Multi-threading. The recommended number of threads is 1, consider adding +mt=1 on command line.
~~~~~~~~~~~~~~~~~~~~~~

******************
DC Analysis `dcOp'
******************

Notice from spectre during DC analysis `dcOp'.
    No checklimit analysis defined for asserts. A default checklimit analysis 'SpectreChecklimitAnal' has been created with all asserts enabled.


Opening the PSF file ../psf/dcOp.dc ...
Important parameter values:
    reltol = 100e-06
    abstol(V) = 1 uV
    abstol(I) = 1 pA
    temp = 27 C
    tnom = 27 C
    tempeffects = all
    gmindc = 1 pS
    rabsshort = 1 mOhm

Notice from spectre during DC analysis `dcOp'.
    Bad pivoting is found during DC analysis. Option dc_pivot_check=yes is recommended for possible improvement of convergence.


Maximum value achieved for any signal of each quantity: 
V: V(net2) = 3.3 V
I: I(V0:p) = 2.406 uA
Maximum value of each quantity, excluding Verilog-A modules or dangling current sources:
V: V(net3) = 1.6 V
I: I(V0:p) = 2.406 uA

Warning from spectre during check, during DC analysis `dcOp'.
    WARNING (CMI-2943): Parameter checks have been ignored because the valid value for parameter 'trise' could not be found in 'C0'.
    WARNING (CMI-2943): Parameter checks have been ignored because the valid value for parameter 'trise' could not be found in 'I0.C6.C1'.
    WARNING (CMI-2943): Parameter checks have been ignored because the valid value for parameter 'trise' could not be found in 'I0.C4.C1'.
    WARNING (CMI-2943): Parameter checks have been ignored because the valid value for parameter 'trise' could not be found in 'I0.C1'.
    WARNING (CMI-2943): Parameter checks have been ignored because the valid value for parameter 'trise' could not be found in 'I0.C5.C0'.
        Further occurrences of this warning will be suppressed.

Convergence achieved in 21 iterations.
DC simulation time: CPU = 76.708 ms, elapsed = 82.8378 ms.
Total time required for dc analysis `dcOp': CPU = 76.845 ms, elapsed = 82.967 ms, util. = 92.6%.
Time accumulated: CPU = 1.24203 s, elapsed = 5.87932 s.
Peak resident memory used = 224 Mbytes.


Notice from spectre.
    2 warnings suppressed.

dcOpInfo: writing operating point information to rawfile.

Opening the PSF file ../psf/dcOpInfo.info ...

*************************************************
Transient Analysis `tran': time = (0 s -> 200 us)
*************************************************

Notice from spectre during IC analysis, during transient analysis `tran'.
    Bad pivoting is found during DC analysis. Option dc_pivot_check=yes is recommended for possible improvement of convergence.
Warning from spectre during check, during IC analysis, during transient analysis `tran'.
    WARNING (CMI-2943): Parameter checks have been ignored because the valid value for parameter 'trise' could not be found in 'C0'.
    WARNING (CMI-2943): Parameter checks have been ignored because the valid value for parameter 'trise' could not be found in 'I0.C6.C1'.
    WARNING (CMI-2943): Parameter checks have been ignored because the valid value for parameter 'trise' could not be found in 'I0.C4.C1'.
    WARNING (CMI-2943): Parameter checks have been ignored because the valid value for parameter 'trise' could not be found in 'I0.C1'.
    WARNING (CMI-2943): Parameter checks have been ignored because the valid value for parameter 'trise' could not be found in 'I0.C5.C0'.
        Further occurrences of this warning will be suppressed.

Convergence achieved in 2 iterations.
DC simulation time: CPU = 568 us, elapsed = 569.105 us.

Opening the PSF file ../psf/tran.tran.tran ...
Important parameter values:
    start = 0 s
    outputstart = 0 s
    stop = 200 us
    step = 200 ns
    maxstep = 2 us
    ic = all
    useprevic = no
    skipdc = no
    reltol = 10e-06
    abstol(V) = 1 uV
    abstol(I) = 1 pA
    temp = 27 C
    tnom = 27 C
    tempeffects = all
    errpreset = conservative
    method = gear2only
    lteratio = 10
    relref = alllocal
    cmin = 0 F
    gmin = 1 pS
    rabsshort = 1 mOhm


Notice from spectre during transient analysis `tran'.
    Multithreading is disabled due to the size of the design being too small.


Output and IC/nodeset summary:
                 save   4       (current)
                 save   32      (voltage)

    tran: time = 5.14 us     (2.57 %), step = 819.5 ns     (410 m%)
    tran: time = 16.88 us    (8.44 %), step = 2 us            (1 %)
    tran: time = 26.88 us    (13.4 %), step = 2 us            (1 %)
    tran: time = 36.88 us    (18.4 %), step = 2 us            (1 %)
    tran: time = 46.88 us    (23.4 %), step = 2 us            (1 %)
    tran: time = 56.88 us    (28.4 %), step = 2 us            (1 %)
    tran: time = 66.88 us    (33.4 %), step = 2 us            (1 %)
    tran: time = 76.88 us    (38.4 %), step = 2 us            (1 %)
    tran: time = 86.88 us    (43.4 %), step = 2 us            (1 %)
    tran: time = 96.88 us    (48.4 %), step = 2 us            (1 %)
    tran: time = 106.9 us    (53.4 %), step = 2 us            (1 %)
    tran: time = 116.9 us    (58.4 %), step = 2 us            (1 %)
    tran: time = 126.9 us    (63.4 %), step = 2 us            (1 %)
    tran: time = 136.9 us    (68.4 %), step = 2 us            (1 %)
    tran: time = 146.9 us    (73.4 %), step = 2 us            (1 %)
    tran: time = 156.9 us    (78.4 %), step = 2 us            (1 %)
    tran: time = 166.9 us    (83.4 %), step = 2 us            (1 %)
    tran: time = 176.9 us    (88.4 %), step = 2 us            (1 %)
    tran: time = 186.9 us    (93.4 %), step = 2 us            (1 %)
    tran: time = 196.9 us    (98.4 %), step = 2 us            (1 %)
Number of accepted tran steps =             157

Maximum value achieved for any signal of each quantity: 
V: V(net2) = 3.3 V
I: I(V1:p) = 2.899 uA
Maximum value of each quantity, excluding Verilog-A modules or dangling current sources:
V: V(net3) = 1.61 V
I: I(V1:p) = 2.899 uA

~~~~~~~~~~~~~~~~~~~~~~~~~~~~~~~~~
Post-Transient Simulation Summary
~~~~~~~~~~~~~~~~~~~~~~~~~~~~~~~~~
   -   To further speed up simulation, consider
          add ++aps on command line
   -   Non-default settings that could significantly slow down simulation
          errpreset = conservative, default moderate
          reltol = 10e-06, default 100e-06 (conservative)
~~~~~~~~~~~~~~~~~~~~~~~~~~~~~~~~~


During simulation, the CPU load for active processors is :
         0 (6.8 %)       1 (5.4 %)       2 (100.0 %)     3 (2.2 %)
         4 (16.8 %)      5 (4.3 %)       6 (1.9 %)       7 (13.9 %)
         8 (5.2 %)       9 (2.2 %)      10 (4.4 %)      11 (2.1 %)
        12 (11.1 %)     13 (14.4 %)     14 (13.2 %)     15 (7.8 %)
        16 (4.8 %)      17 (3.6 %)      18 (100.0 %)    19 (4.1 %)
        20 (7.4 %)      21 (5.4 %)      22 (2.7 %)      23 (2.2 %)
        24 (36.2 %)     25 (7.2 %)      26 (3.3 %)      27 (10.6 %)
        28 (3.1 %)      29 (2.2 %)      30 (2.9 %)      31 (8.2 %)
        32 (75.9 %)     33 (28.5 %)     34 (40.6 %)     35 (3.8 %)
        36 (39.6 %)     37 (31.3 %)     38 (17.3 %)     39 (23.7 %)
        40 (16.4 %)     41 (14.6 %)     42 (24.7 %)     43 (100.0 %)
        44 (16.7 %)     45 (36.1 %)     46 (30.8 %)     47 (17.7 %)
        Total: 933.4%
Initial condition solution time: CPU = 600 us, elapsed = 602.007 us.
Intrinsic tran analysis time:    CPU = 41.584 ms, elapsed = 43.3669 ms.
Total time required for tran analysis `tran': CPU = 43.695 ms, elapsed = 46.3309 ms, util. = 94.3%.
Time accumulated: CPU = 1.29012 s, elapsed = 5.93283 s.
Peak resident memory used = 224 Mbytes.


Notice from spectre.
    2 warnings suppressed.

finalTimeOP: writing operating point information to rawfile.

Opening the PSF file ../psf/finalTimeOP.info ...

*******************************************
AC Analysis `ac': freq = (10 mHz -> 10 GHz)
*******************************************

Notice from spectre during DC analysis, during AC analysis `ac'.
    Bad pivoting is found during DC analysis. Option dc_pivot_check=yes is recommended for possible improvement of convergence.
Warning from spectre during check, during DC analysis, during AC analysis `ac'.
    WARNING (CMI-2943): Parameter checks have been ignored because the valid value for parameter 'trise' could not be found in 'C0'.
    WARNING (CMI-2943): Parameter checks have been ignored because the valid value for parameter 'trise' could not be found in 'I0.C6.C1'.
    WARNING (CMI-2943): Parameter checks have been ignored because the valid value for parameter 'trise' could not be found in 'I0.C4.C1'.
    WARNING (CMI-2943): Parameter checks have been ignored because the valid value for parameter 'trise' could not be found in 'I0.C1'.
    WARNING (CMI-2943): Parameter checks have been ignored because the valid value for parameter 'trise' could not be found in 'I0.C5.C0'.
        Further occurrences of this warning will be suppressed.

Convergence achieved in 21 iterations.
DC simulation time: CPU = 1.571 ms, elapsed = 1.57094 ms.

Opening the PSF file ../psf/ac.ac ...
    ac: freq = 30.2 mHz       (4 %), step = 12.82 mHz       (2 %)
    ac: freq = 52.48 mHz      (6 %), step = 22.28 mHz       (2 %)
    ac: freq = 91.2 mHz       (8 %), step = 38.72 mHz       (2 %)
    ac: freq = 158.5 mHz     (10 %), step = 67.29 mHz       (2 %)
    ac: freq = 275.4 mHz     (12 %), step = 116.9 mHz       (2 %)
    ac: freq = 478.6 mHz     (14 %), step = 203.2 mHz       (2 %)
    ac: freq = 831.8 mHz     (16 %), step = 353.1 mHz       (2 %)
    ac: freq = 1.445 Hz      (18 %), step = 613.7 mHz       (2 %)
    ac: freq = 2.512 Hz      (20 %), step = 1.066 Hz        (2 %)
    ac: freq = 4.365 Hz      (22 %), step = 1.853 Hz        (2 %)
    ac: freq = 7.586 Hz      (24 %), step = 3.221 Hz        (2 %)
    ac: freq = 13.18 Hz      (26 %), step = 5.597 Hz        (2 %)
    ac: freq = 22.91 Hz      (28 %), step = 9.726 Hz        (2 %)
    ac: freq = 39.81 Hz      (30 %), step = 16.9 Hz         (2 %)
    ac: freq = 69.18 Hz      (32 %), step = 29.37 Hz        (2 %)
    ac: freq = 120.2 Hz      (34 %), step = 51.04 Hz        (2 %)
    ac: freq = 208.9 Hz      (36 %), step = 88.7 Hz         (2 %)
    ac: freq = 363.1 Hz      (38 %), step = 154.1 Hz        (2 %)
    ac: freq = 631 Hz        (40 %), step = 267.9 Hz        (2 %)
    ac: freq = 1.096 kHz     (42 %), step = 465.5 Hz        (2 %)
    ac: freq = 1.905 kHz     (44 %), step = 809 Hz          (2 %)
    ac: freq = 3.311 kHz     (46 %), step = 1.406 kHz       (2 %)
    ac: freq = 5.754 kHz     (48 %), step = 2.443 kHz       (2 %)
    ac: freq = 10 kHz        (50 %), step = 4.246 kHz       (2 %)
    ac: freq = 17.38 kHz     (52 %), step = 7.378 kHz       (2 %)
    ac: freq = 30.2 kHz      (54 %), step = 12.82 kHz       (2 %)
    ac: freq = 52.48 kHz     (56 %), step = 22.28 kHz       (2 %)
    ac: freq = 91.2 kHz      (58 %), step = 38.72 kHz       (2 %)
    ac: freq = 158.5 kHz     (60 %), step = 67.29 kHz       (2 %)
    ac: freq = 275.4 kHz     (62 %), step = 116.9 kHz       (2 %)
    ac: freq = 478.6 kHz     (64 %), step = 203.2 kHz       (2 %)
    ac: freq = 831.8 kHz     (66 %), step = 353.1 kHz       (2 %)
    ac: freq = 1.445 MHz     (68 %), step = 613.7 kHz       (2 %)
    ac: freq = 2.512 MHz     (70 %), step = 1.066 MHz       (2 %)
    ac: freq = 4.365 MHz     (72 %), step = 1.853 MHz       (2 %)
    ac: freq = 7.586 MHz     (74 %), step = 3.221 MHz       (2 %)
    ac: freq = 13.18 MHz     (76 %), step = 5.597 MHz       (2 %)
    ac: freq = 22.91 MHz     (78 %), step = 9.726 MHz       (2 %)
    ac: freq = 39.81 MHz     (80 %), step = 16.9 MHz        (2 %)
    ac: freq = 69.18 MHz     (82 %), step = 29.37 MHz       (2 %)
    ac: freq = 120.2 MHz     (84 %), step = 51.04 MHz       (2 %)
    ac: freq = 208.9 MHz     (86 %), step = 88.7 MHz        (2 %)
    ac: freq = 363.1 MHz     (88 %), step = 154.1 MHz       (2 %)
    ac: freq = 631 MHz       (90 %), step = 267.9 MHz       (2 %)
    ac: freq = 1.096 GHz     (92 %), step = 465.5 MHz       (2 %)
    ac: freq = 1.905 GHz     (94 %), step = 809 MHz         (2 %)
    ac: freq = 3.311 GHz     (96 %), step = 1.406 GHz       (2 %)
    ac: freq = 5.754 GHz     (98 %), step = 2.443 GHz       (2 %)
    ac: freq = 10 GHz       (100 %), step = 4.246 GHz       (2 %)
Accumulated DC solution time =            1.65296 ms.
Intrinsic ac analysis time =              8.40116 ms.
Total time required for ac analysis `ac': CPU = 9.817 ms, elapsed = 10.7698 ms, util. = 91.2%.
Time accumulated: CPU = 1.30329 s, elapsed = 5.9492 s.
Peak resident memory used = 224 Mbytes.


Notice from spectre.
    2 warnings suppressed.

modelParameter: writing model parameter values to rawfile.

Opening the PSF file ../psf/modelParameter.info ...
element: writing instance parameter values to rawfile.

Opening the PSF file ../psf/element.info ...
outputParameter: writing output parameter values to rawfile.

Opening the PSF file ../psf/outputParameter.info ...
designParamVals: writing netlist parameters to rawfile.

Opening the PSFASCII file ../psf/designParamVals.info ...
primitives: writing primitives to rawfile.

Opening the PSFASCII file ../psf/primitives.info.primitives ...
subckts: writing subcircuits to rawfile.

Opening the PSFASCII file ../psf/subckts.info.subckts ...
Licensing Information:
Lic Summary:
[09:48:16.060202] Cdslmd servers:3000@lic08.ug.kth.se:29000@lic06.ug.kth.se
[09:48:16.584529] Feature usage summary:
[09:48:16.584530] Virtuoso_Multi_mode_Simulation


Aggregate audit (9:48:16 AM, Fri Mar 13, 2026):
Time used: CPU = 1.33 s, elapsed = 5.98 s, util. = 22.2%.
Time spent in licensing: elapsed = 47.8 ms.
Peak memory used = 225 Mbytes.
Simulation started at: 9:48:10 AM, Fri Mar 13, 2026, ended at: 9:48:16 AM, Fri Mar 13, 2026, with elapsed time (wall clock): 5.98 s.
spectre completes with 0 errors, 34 warnings, and 14 notices.
