
Spectre (R) Circuit Simulator
Version 24.1.0.288.isr5 64bit -- 3 Apr 2025
Copyright (C) 1989-2025 Cadence Design Systems, Inc. All rights reserved worldwide. Cadence and Spectre are registered trademarks of Cadence Design Systems, Inc. All others are the property of their respective holders.

Includes RSA BSAFE(R) Cryptographic or Security Protocol Software from RSA Security, Inc.

User: davidevi   Host: il2244vt26_davidevi   HostID: 11AC2C00   PID: 101616
Memory  available: 3.0856 TB  physical: 3.2467 TB
Linux   : Rocky Linux release 8.10 (Green Obsidian)
CPU Type: Intel(R) Xeon(R) CPU E7-8857 v2 @ 3.00GHz
        Socket: Processors [Frequency]
        0:       0 [3000.0],  1 [1200.0],  2 [2999.9],  3 [2999.9],  4 [2999.9]
                 5 [1200.0],  6 [1200.0],  7 [1200.0],  8 [1200.0],  9 [1200.0]
                10 [1200.0], 11 [1200.0]
        1:      12 [2999.9], 13 [1200.0], 14 [1200.0], 15 [1200.0], 16 [3600.0]
                17 [1200.0], 18 [2999.9], 19 [1200.0], 20 [3600.0], 21 [2999.9]
                22 [1200.0], 23 [1200.0]
        2:      24 [1200.0], 25 [1200.0], 26 [2700.0], 27 [2999.9], 28 [2749.6]
                29 [2900.0], 30 [1200.0], 31 [1200.0], 32 [1200.0], 33 [1200.0]
                34 [1200.0], 35 [1200.0]
        3:      36 [1200.0], 37 [1200.0], 38 [2500.0], 39 [1200.0], 40 [2500.0]
                41 [2400.0], 42 [3000.0], 43 [1200.0], 44 [3500.0], 45 [3600.0]
                46 [1200.0], 47 [2984.8]
        
System load averages (1min, 5min, 15min) : 13.1 %, 13.4 %, 13.1 %
HPC is enabled


Simulating `input.scs' on il2244vt26_davidevi at 5:04:53 PM, Sat Mar 7, 2026 (process id: 101616).
Current working directory: /home/davidevi/Desktop/myproject/Sim/VGA_tb_new/spectre/schematic/netlist
Command line:
    /opt/tools/cadence/installs/SPECTRE241/tools/bin/spectre -64  \
        input.scs +escchars +log ../psf/spectre.out -format psfbin  \
        +rtsf -raw ../psf +aps +mt +lqtimeout 900 -maxw 5 -maxn 5  \
        +param /opt/pdk/ams/410/spectre/ams_range.lmts -env ade  \
        +adespetkn=adespe

Licensing Information:
[17:04:53.121762] Configured Lic search path (24.01-s002): 3000@lic08.ug.kth.se:29000@lic06.ug.kth.se

Licensing Information:
[17:04:53.392915] Periodic Lic check successful

Loading /opt/tools/cadence/installs/SPECTRE241/tools.lnx86/cmi/lib/64bit/5.0/libinfineon_sh.so ...
Loading /opt/tools/cadence/installs/SPECTRE241/tools.lnx86/cmi/lib/64bit/5.0/libphilips_I_sh.so ...
Loading /opt/tools/cadence/installs/SPECTRE241/tools.lnx86/cmi/lib/64bit/5.0/libphilips_sh.so ...
Loading /opt/tools/cadence/installs/SPECTRE241/tools.lnx86/cmi/lib/64bit/5.0/libsparam_sh.so ...
Loading /opt/tools/cadence/installs/SPECTRE241/tools.lnx86/cmi/lib/64bit/5.0/libstmodels_sh.so ...

Warning from spectre.
    WARNING (SPECTRE-691): This CPU processor does not support x86 advanced vector extensions instructions. This may affect math operations and slow down the simulation.

Reading file:  /home/davidevi/Desktop/myproject/Sim/VGA_tb_new/spectre/schematic/netlist/input.scs
Reading file:  /opt/pdk/ams/410/spectre/ams_range.lmts

Warning from spectre during read of parameter soft limits file `/opt/pdk/ams/410/spectre/ams_range.lmts', during circuit read-in.
    WARNING (SPECTRE-8360): line 1511: `ac' is an undefined primitive device.
    WARNING (SPECTRE-8360): line 1512: `ac' is an undefined primitive device.
    WARNING (SPECTRE-8360): line 1513: `ac' is an undefined primitive device.
    WARNING (SPECTRE-8360): line 1514: `ac' is an undefined primitive device.
    WARNING (SPECTRE-8360): line 1515: `ac' is an undefined primitive device.
        Further occurrences of this warning will be suppressed.

Reading file:  /opt/tools/cadence/installs/SPECTRE241/tools.lnx86/spectre/etc/configs/spectre.cfg
Reading file:  /opt/pdk/ams/410/spectre/c35/soac/soac.scs
Reading file:  /opt/pdk/ams/410/spectre/c35/soac/processOption.scs
Reading file:  /opt/pdk/ams/410/spectre/c35/soac/process.scs
Reading file:  /opt/pdk/ams/410/spectre/c35/soac/soac.va

Warning from spectre during AHDL read-in.
    WARNING (VACOMP-2435): The environment variable CDS_AHDLCMI_ENABLE is no longer supported. Therefore, the simulator will use the default compiled C code flow.

Reading link:  /opt/tools/cadence/installs/SPECTRE241/tools.lnx86/spectre/etc/ahdl/constants.h
Reading file:  /opt/tools/cadence/installs/SPECTRE241/tools.lnx86/spectre/etc/ahdl/constants.vams
Reading link:  /opt/tools/cadence/installs/SPECTRE241/tools.lnx86/spectre/etc/ahdl/discipline.h
Reading file:  /opt/tools/cadence/installs/SPECTRE241/tools.lnx86/spectre/etc/ahdl/disciplines.vams
Reading file:  /opt/pdk/ams/410/spectre/c35/processOption/C35B4C3.scs
Reading file:  /opt/pdk/ams/410/spectre/c35/soac/cmos53.scs
Reading file:  /opt/pdk/ams/410/spectre/c35/soac/res.scs
Reading file:  /opt/pdk/ams/410/spectre/c35/soac/cap.scs
Reading file:  /opt/pdk/ams/410/spectre/c35/soac/bip.scs
Reading file:  /opt/pdk/ams/410/spectre/c35/soac/ind.scs
Reading file:  /opt/pdk/ams/410/spectre/c35/soac/esddiode.scs
Reading file:  /home/davidevi/Desktop/myproject/VGA/VGA/veriloga/veriloga.va
Time for NDB Parsing: CPU = 173.57 ms, elapsed = 340.771 ms.
Time accumulated: CPU = 336.568 ms, elapsed = 340.774 ms.
Peak resident memory used = 175 Mbytes.

Existing shared object for module VGA is up to date.
Installed compiled interface for VGA.
Time for Elaboration: CPU = 33.841 ms, elapsed = 35.4669 ms.
Time accumulated: CPU = 370.586 ms, elapsed = 376.408 ms.
Peak resident memory used = 184 Mbytes.


Notice from spectre during hierarchy flattening.
    The value 'psf' specified for the 'checklimitdest' option will no longer be supported in future releases. Use 'spectre -h' to see other recommended values for the 'checklimitdest' option.


*****************************************************************************************
* 
* INFO: AMS_processOption = C35B4C3
* 
* INFO: Valid Modules  PIP VG5 HIRES
* 
*****************************************************************************************


Notice from spectre during hierarchy flattening.
    V7: `period' has the unusually large value of 8 Ts.
    V6: `period' has the unusually large value of 4 Ts.
    V3: `period' has the unusually large value of 2 Ts.


Time for EDB Visiting: CPU = 3.287 ms, elapsed = 3.28684 ms.
Time accumulated: CPU = 374.02 ms, elapsed = 379.841 ms.
Peak resident memory used = 186 Mbytes.

Loading /opt/tools/cadence/installs/SPECTRE241/tools.lnx86/mdl/lib/64bit/libSpectreEH_sh.so ...

Warning from spectre during initial setup.
    WARNING (SPECTRE-16460): SOAC_cvarm_vspsub:Specified subcircuit master `cvarm' was not found.
    WARNING (SPECTRE-16462): SOAC_cvarm_vspsub:Error in specification of subcircuit master. Assert is ignored.
    WARNING (SPECTRE-16460): SOAC_cvarm_vbs:Specified subcircuit master `cvarm' was not found.
    WARNING (SPECTRE-16462): SOAC_cvarm_vbs:Error in specification of subcircuit master. Assert is ignored.
    WARNING (SPECTRE-16460): SOAC_cvarm_vgb:Specified subcircuit master `cvarm' was not found.
    WARNING (SPECTRE-16462): SOAC_cvarm_vgb:Error in specification of subcircuit master. Assert is ignored.
    WARNING (SPECTRE-16460): SOAC_cvart_vspsub:Specified subcircuit master `cvart' was not found.
    WARNING (SPECTRE-16462): SOAC_cvart_vspsub:Error in specification of subcircuit master. Assert is ignored.
    WARNING (SPECTRE-16460): SOAC_cvart_vbs:Specified subcircuit master `cvart' was not found.
        Further occurrences of this warning will be suppressed.
    WARNING (SPECTRE-16462): SOAC_cvart_vbs:Error in specification of subcircuit master. Assert is ignored.
        Further occurrences of this warning will be suppressed.
Notice from spectre during initial setup.
    Ignorevaref=yes is ignored since all nodes are connected to Verilog-A modules.
Notice from spectre during topology check.
    Only one connection to node `vout'.
Warning from spectre during topology check.
    WARNING (SPECTRE-690): No DC path from current source node `ibias' to ground. Gmin is installed to provide path, however this can lead to high voltage situation. Ensure to check the circuit for any design issues.
Notice from spectre during initial setup.
    Multithreading is disabled due to the size of the design being too small.


Netlist title:
        // Generated for: spectre


Global user options:
         psfversion = 1.4.0
            vabstol = 1e-06
            iabstol = 1e-12
               temp = 27
           homotopy = 5
              limit = delta
         compatible = spice2
               gmin = 1e-12
             rforce = 1
           maxnotes = 5
           maxwarns = 5
             digits = 5
               cols = 80
             pivrel = 0.001
           sensfile = ../psf/sens.output
     checklimitdest = psf
     enable_pre_ver = yes
      ignorezerovar = yes
               save = allpub
             reltol = 0.0001
               tnom = 27
             scalem = 1
              scale = 1

Scoped user options:

Circuit inventory:
              nodes 10
            isource 1     
                VGA 1     
            vsource 8     

Analysis and control statement inventory:
                 ac 1     
                 dc 1     
               info 8     
               tran 1     

Output statements:
             .probe 0     
           .measure 0     
               save 0     

Design checks inventory:
          paramtest 1     
             assert 175   


Notice from spectre during initial setup.
    APS enabled.
    72 warnings suppressed.

Time for parsing: CPU = 13.204 ms, elapsed = 631.945 ms.
Time accumulated: CPU = 387.333 ms, elapsed = 1.01189 s.
Peak resident memory used = 192 Mbytes.

~~~~~~~~~~~~~~~~~~~~~~
Pre-Simulation Summary
~~~~~~~~~~~~~~~~~~~~~~
   -   (APS) Multi-threading. The recommended number of threads is 1, consider adding +mt=1 on command line.
~~~~~~~~~~~~~~~~~~~~~~

******************
DC Analysis `dcOp'
******************

Notice from spectre during DC analysis `dcOp'.
    No checklimit analysis defined for asserts. A default checklimit analysis 'SpectreChecklimitAnal' has been created with all asserts enabled.


Opening the PSF file ../psf/dcOp.dc ...
Important parameter values:
    reltol = 100e-06
    abstol(V) = 1 uV
    abstol(I) = 1 pA
    temp = 27 C
    tnom = 27 C
    tempeffects = all
    gmindc = 1 pS
    rabsshort = 1 mOhm

Notice from spectre during DC analysis `dcOp'.
    GminDC = 1 pS is large enough to noticeably affect the DC solution.
        dV(ibias) = -1 TV
        Use the `gmin_check' option to eliminate or expand this report.


Maximum value achieved for any signal of each quantity: 
V: V(ibias) = 1 TV
I: I(V4:p) = 0 A
Convergence achieved in 12 iterations.
DC simulation time: CPU = 3.847 ms, elapsed = 5.59402 ms.
Total time required for dc analysis `dcOp': CPU = 3.946 ms, elapsed = 5.68509 ms, util. = 69.4%.
Time accumulated: CPU = 418.32 ms, elapsed = 1.04609 s.
Peak resident memory used = 196 Mbytes.

dcOpInfo: writing operating point information to rawfile.

Opening the PSF file ../psf/dcOpInfo.info ...

*************************************************
Transient Analysis `tran': time = (0 s -> 200 us)
*************************************************

Notice from spectre during IC analysis, during transient analysis `tran'.
    GminDC = 1 pS is large enough to noticeably affect the DC solution.
        dV(ibias) = -1 TV
        Use the `gmin_check' option to eliminate or expand this report.

Convergence achieved in 2 iterations.
DC simulation time: CPU = 344 us, elapsed = 344.992 us.

Opening the PSF file ../psf/tran.tran.tran ...
Important parameter values:
    start = 0 s
    outputstart = 0 s
    stop = 200 us
    step = 200 ns
    maxstep = 2 us
    ic = all
    useprevic = no
    skipdc = no
    reltol = 10e-06
    abstol(V) = 1 uV
    abstol(I) = 1 pA
    temp = 27 C
    tnom = 27 C
    tempeffects = all
    errpreset = conservative
    method = gear2only
    lteratio = 10
    relref = alllocal
    cmin = 0 F
    gmin = 1 pS
    rabsshort = 1 mOhm


Notice from spectre during transient analysis `tran'.
    Multithreading is disabled due to the size of the design being too small.


Output and IC/nodeset summary:
                 save   8       (current)
                 save   10      (voltage)

    tran: time = 5 us         (2.5 %), step = 214.1 ns     (107 m%)
    tran: time = 15 us        (7.5 %), step = 214.1 ns     (107 m%)
    tran: time = 25 us       (12.5 %), step = 214.1 ns     (107 m%)
    tran: time = 35 us       (17.5 %), step = 214.1 ns     (107 m%)
    tran: time = 45 us       (22.5 %), step = 214.1 ns     (107 m%)
    tran: time = 55 us       (27.5 %), step = 277.8 ps     (139 u%)
    tran: time = 65 us       (32.5 %), step = 277.8 ps     (139 u%)
    tran: time = 75 us       (37.5 %), step = 277.8 ps     (139 u%)
    tran: time = 85 us       (42.5 %), step = 277.8 ps     (139 u%)
    tran: time = 95 us       (47.5 %), step = 277.8 ps     (139 u%)
    tran: time = 105 us      (52.5 %), step = 277.8 ps     (139 u%)
    tran: time = 115 us      (57.5 %), step = 214.1 ns     (107 m%)
    tran: time = 125 us      (62.5 %), step = 214.1 ns     (107 m%)
    tran: time = 135 us      (67.5 %), step = 277.8 ps     (139 u%)
    tran: time = 145 us      (72.5 %), step = 214.1 ns     (107 m%)
    tran: time = 155 us      (77.5 %), step = 277.8 ps     (139 u%)
    tran: time = 165 us      (82.5 %), step = 214.1 ns     (107 m%)
    tran: time = 175 us      (87.5 %), step = 214.1 ns     (107 m%)
    tran: time = 185 us      (92.5 %), step = 214.1 ns     (107 m%)
    tran: time = 195 us      (97.5 %), step = 214.1 ns     (107 m%)
Number of accepted tran steps =             5200

Maximum value achieved for any signal of each quantity: 
V: V(ibias) = 1 TV
I: I(V4:p) = 0 A
Maximum value of each quantity, excluding dangling current sources:
V: V(en) = 3.3 V
I: I(V4:p) = 0 A

~~~~~~~~~~~~~~~~~~~~~~~~~~~~~~~~~
Post-Transient Simulation Summary
~~~~~~~~~~~~~~~~~~~~~~~~~~~~~~~~~
   -   To further speed up simulation, consider
          add ++aps on command line
   -   Non-default settings that could significantly slow down simulation
          errpreset = conservative, default moderate
          reltol = 10e-06, default 100e-06 (conservative)
   -   The circuit contains signals of the voltage > 10V, consider to set highvoltage=yes to get better accuracy and convergence ability.
~~~~~~~~~~~~~~~~~~~~~~~~~~~~~~~~~


During simulation, the CPU load for active processors is :
         0 (1.6 %)       2 (94.8 %)      3 (61.2 %)      4 (99.3 %)
         5 (2.3 %)       6 (3.0 %)       7 (2.3 %)       9 (1.5 %)
        11 (3.7 %)      12 (20.1 %)     13 (1.5 %)      14 (1.5 %)
        15 (2.3 %)      16 (5.3 %)      18 (6.2 %)      19 (3.0 %)
        20 (3.1 %)      21 (11.5 %)     22 (5.2 %)      23 (1.5 %)
        24 (21.2 %)     25 (6.8 %)      26 (4.5 %)      27 (100.0 %)
        28 (6.1 %)      29 (4.5 %)      30 (19.4 %)     31 (18.9 %)
        32 (3.0 %)      33 (7.5 %)      34 (3.7 %)      36 (20.6 %)
        37 (1.6 %)      38 (3.1 %)      39 (10.4 %)     40 (8.3 %)
        41 (3.1 %)      42 (7.7 %)      43 (6.8 %)      44 (4.7 %)
        45 (2.3 %)      46 (33.1 %)     47 (32.6 %)     
        Total: 663.8%
Initial condition solution time: CPU = 377 us, elapsed = 378.132 us.
Intrinsic tran analysis time:    CPU = 339.493 ms, elapsed = 341.84 ms.
Total time required for tran analysis `tran': CPU = 341.412 ms, elapsed = 344.123 ms, util. = 99.2%.
Time accumulated: CPU = 762.744 ms, elapsed = 1.39641 s.
Peak resident memory used = 198 Mbytes.

finalTimeOP: writing operating point information to rawfile.

Opening the PSF file ../psf/finalTimeOP.info ...

********************************************
AC Analysis `ac': freq = (100 mHz -> 10 GHz)
********************************************

Notice from spectre during DC analysis, during AC analysis `ac'.
    GminDC = 1 pS is large enough to noticeably affect the DC solution.
        dV(ibias) = -1 TV
        Use the `gmin_check' option to eliminate or expand this report.

Convergence achieved in 12 iterations.
DC simulation time: CPU = 527 us, elapsed = 526.905 us.

Opening the PSF file ../psf/ac.ac ...
    ac: freq = 275.4 mHz      (4 %), step = 109.5 mHz       (2 %)
    ac: freq = 457.1 mHz      (6 %), step = 181.7 mHz       (2 %)
    ac: freq = 758.6 mHz      (8 %), step = 301.5 mHz       (2 %)
    ac: freq = 1.259 Hz      (10 %), step = 500.3 mHz       (2 %)
    ac: freq = 2.089 Hz      (12 %), step = 830.4 mHz       (2 %)
    ac: freq = 3.467 Hz      (14 %), step = 1.378 Hz        (2 %)
    ac: freq = 5.754 Hz      (16 %), step = 2.287 Hz        (2 %)
    ac: freq = 9.55 Hz       (18 %), step = 3.796 Hz        (2 %)
    ac: freq = 15.85 Hz      (20 %), step = 6.299 Hz        (2 %)
    ac: freq = 26.3 Hz       (22 %), step = 10.45 Hz        (2 %)
    ac: freq = 43.65 Hz      (24 %), step = 17.35 Hz        (2 %)
    ac: freq = 72.44 Hz      (26 %), step = 28.79 Hz        (2 %)
    ac: freq = 120.2 Hz      (28 %), step = 47.78 Hz        (2 %)
    ac: freq = 199.5 Hz      (30 %), step = 79.3 Hz         (2 %)
    ac: freq = 331.1 Hz      (32 %), step = 131.6 Hz        (2 %)
    ac: freq = 549.5 Hz      (34 %), step = 218.4 Hz        (2 %)
    ac: freq = 912 Hz        (36 %), step = 362.5 Hz        (2 %)
    ac: freq = 1.514 kHz     (38 %), step = 601.6 Hz        (2 %)
    ac: freq = 2.512 kHz     (40 %), step = 998.3 Hz        (2 %)
    ac: freq = 4.169 kHz     (42 %), step = 1.657 kHz       (2 %)
    ac: freq = 6.918 kHz     (44 %), step = 2.75 kHz        (2 %)
    ac: freq = 11.48 kHz     (46 %), step = 4.563 kHz       (2 %)
    ac: freq = 19.05 kHz     (48 %), step = 7.573 kHz       (2 %)
    ac: freq = 31.62 kHz     (50 %), step = 12.57 kHz       (2 %)
    ac: freq = 52.48 kHz     (52 %), step = 20.86 kHz       (2 %)
    ac: freq = 87.1 kHz      (54 %), step = 34.62 kHz       (2 %)
    ac: freq = 144.5 kHz     (56 %), step = 57.45 kHz       (2 %)
    ac: freq = 239.9 kHz     (58 %), step = 95.34 kHz       (2 %)
    ac: freq = 398.1 kHz     (60 %), step = 158.2 kHz       (2 %)
    ac: freq = 660.7 kHz     (62 %), step = 262.6 kHz       (2 %)
    ac: freq = 1.096 MHz     (64 %), step = 435.8 kHz       (2 %)
    ac: freq = 1.82 MHz      (66 %), step = 723.2 kHz       (2 %)
    ac: freq = 3.02 MHz      (68 %), step = 1.2 MHz         (2 %)
    ac: freq = 5.012 MHz     (70 %), step = 1.992 MHz       (2 %)
    ac: freq = 8.318 MHz     (72 %), step = 3.306 MHz       (2 %)
    ac: freq = 13.8 MHz      (74 %), step = 5.486 MHz       (2 %)
    ac: freq = 22.91 MHz     (76 %), step = 9.105 MHz       (2 %)
    ac: freq = 38.02 MHz     (78 %), step = 15.11 MHz       (2 %)
    ac: freq = 63.1 MHz      (80 %), step = 25.08 MHz       (2 %)
    ac: freq = 104.7 MHz     (82 %), step = 41.62 MHz       (2 %)
    ac: freq = 173.8 MHz     (84 %), step = 69.07 MHz       (2 %)
    ac: freq = 288.4 MHz     (86 %), step = 114.6 MHz       (2 %)
    ac: freq = 478.6 MHz     (88 %), step = 190.2 MHz       (2 %)
    ac: freq = 794.3 MHz     (90 %), step = 315.7 MHz       (2 %)
    ac: freq = 1.318 GHz     (92 %), step = 523.9 MHz       (2 %)
    ac: freq = 2.188 GHz     (94 %), step = 869.5 MHz       (2 %)
    ac: freq = 3.631 GHz     (96 %), step = 1.443 GHz       (2 %)
    ac: freq = 6.026 GHz     (98 %), step = 2.395 GHz       (2 %)
    ac: freq = 10 GHz       (100 %), step = 3.974 GHz       (2 %)
Accumulated DC solution time =            604.868 us.
Intrinsic ac analysis time =              5.17225 ms.
Total time required for ac analysis `ac': CPU = 5.139 ms, elapsed = 5.867 ms, util. = 87.6%.
Time accumulated: CPU = 770.01 ms, elapsed = 1.40628 s.
Peak resident memory used = 198 Mbytes.

modelParameter: writing model parameter values to rawfile.

Opening the PSF file ../psf/modelParameter.info ...
element: writing instance parameter values to rawfile.

Opening the PSF file ../psf/element.info ...
outputParameter: writing output parameter values to rawfile.

Opening the PSF file ../psf/outputParameter.info ...
designParamVals: writing netlist parameters to rawfile.

Opening the PSFASCII file ../psf/designParamVals.info ...
primitives: writing primitives to rawfile.

Opening the PSFASCII file ../psf/primitives.info.primitives ...
subckts: writing subcircuits to rawfile.

Opening the PSFASCII file ../psf/subckts.info.subckts ...
Licensing Information:
Lic Summary:
[17:04:55.166200] Cdslmd servers:3000@lic08.ug.kth.se:29000@lic06.ug.kth.se
[17:04:55.166248] Feature usage summary:
[17:04:55.166250] Virtuoso_Multi_mode_Simulation


Aggregate audit (5:04:55 PM, Sat Mar 7, 2026):
Time used: CPU = 786 ms, elapsed = 1.43 s, util. = 54.9%.
Time spent in licensing: elapsed = 49.9 ms.
Peak memory used = 200 Mbytes.
Simulation started at: 5:04:53 PM, Sat Mar 7, 2026, ended at: 5:04:55 PM, Sat Mar 7, 2026, with elapsed time (wall clock): 1.43 s.
spectre completes with 0 errors, 18 warnings, and 15 notices.
