
Spectre (R) Circuit Simulator
Version 24.1.0.288.isr5 64bit -- 3 Apr 2025
Copyright (C) 1989-2025 Cadence Design Systems, Inc. All rights reserved worldwide. Cadence and Spectre are registered trademarks of Cadence Design Systems, Inc. All others are the property of their respective holders.

Includes RSA BSAFE(R) Cryptographic or Security Protocol Software from RSA Security, Inc.

User: davidevi   Host: il2244vt26_davidevi   HostID: 11AC2C00   PID: 42146
Memory  available: 3.0967 TB  physical: 3.2467 TB
Linux   : Rocky Linux release 8.10 (Green Obsidian)
CPU Type: Intel(R) Xeon(R) CPU E7-8857 v2 @ 3.00GHz
        Socket: Processors [Frequency]
        0:       0 [2384.8],  1 [2800.0],  2 [1200.0],  3 [1200.0],  4 [1200.0]
                 5 [1200.0],  6 [1200.0],  7 [1200.0],  8 [1200.0],  9 [2246.0]
                10 [2600.0], 11 [1200.0]
        1:      12 [1767.0], 13 [1598.5], 14 [1446.6], 15 [1700.0], 16 [1842.6]
                17 [1200.0], 18 [1200.0], 19 [1200.0], 20 [1810.6], 21 [1200.0]
                22 [1200.0], 23 [1200.0]
        2:      24 [3200.0], 25 [1200.0], 26 [1817.1], 27 [1200.0], 28 [1447.6]
                29 [1200.0], 30 [1200.0], 31 [1300.0], 32 [1200.0], 33 [1200.0]
                34 [1200.0], 35 [1200.0]
        3:      36 [2100.0], 37 [1200.0], 38 [2800.0], 39 [1200.0], 40 [1200.0]
                41 [1200.0], 42 [1800.0], 43 [1200.0], 44 [1200.0], 45 [2400.0]
                46 [1200.0], 47 [1200.0]
        
System load averages (1min, 5min, 15min) : 8.0 %, 9.1 %, 9.7 %
HPC is enabled


Simulating `input.scs' on il2244vt26_davidevi at 2:15:57 PM, Thur Feb 26, 2026 (process id: 42146).
Current working directory: /home/davidevi/Desktop/myproject/Sim/VGA_tb/spectre/schematic/netlist
Command line:
    /opt/tools/cadence/installs/SPECTRE241/tools/bin/spectre -64  \
        input.scs +escchars +log ../psf/spectre.out -format psfbin  \
        +rtsf -raw ../psf +aps +mt +lqtimeout 900 -maxw 5 -maxn 5  \
        +param /opt/pdk/ams/410/spectre/ams_range.lmts -env ade  \
        +adespetkn=adespe

Licensing Information:
[14:15:57.121786] Configured Lic search path (24.01-s002): 3000@lic08.ug.kth.se:29000@lic06.ug.kth.se

Licensing Information:
[14:15:57.390794] Periodic Lic check successful

Loading /opt/tools/cadence/installs/SPECTRE241/tools.lnx86/cmi/lib/64bit/5.0/libinfineon_sh.so ...
Loading /opt/tools/cadence/installs/SPECTRE241/tools.lnx86/cmi/lib/64bit/5.0/libphilips_I_sh.so ...
Loading /opt/tools/cadence/installs/SPECTRE241/tools.lnx86/cmi/lib/64bit/5.0/libphilips_sh.so ...
Loading /opt/tools/cadence/installs/SPECTRE241/tools.lnx86/cmi/lib/64bit/5.0/libsparam_sh.so ...
Loading /opt/tools/cadence/installs/SPECTRE241/tools.lnx86/cmi/lib/64bit/5.0/libstmodels_sh.so ...

Warning from spectre.
    WARNING (SPECTRE-691): This CPU processor does not support x86 advanced vector extensions instructions. This may affect math operations and slow down the simulation.

Reading file:  /home/davidevi/Desktop/myproject/Sim/VGA_tb/spectre/schematic/netlist/input.scs
Reading file:  /opt/pdk/ams/410/spectre/ams_range.lmts

Warning from spectre during read of parameter soft limits file `/opt/pdk/ams/410/spectre/ams_range.lmts', during circuit read-in.
    WARNING (SPECTRE-8360): line 1511: `ac' is an undefined primitive device.
    WARNING (SPECTRE-8360): line 1512: `ac' is an undefined primitive device.
    WARNING (SPECTRE-8360): line 1513: `ac' is an undefined primitive device.
    WARNING (SPECTRE-8360): line 1514: `ac' is an undefined primitive device.
    WARNING (SPECTRE-8360): line 1515: `ac' is an undefined primitive device.
        Further occurrences of this warning will be suppressed.

Reading file:  /opt/tools/cadence/installs/SPECTRE241/tools.lnx86/spectre/etc/configs/spectre.cfg
Reading file:  /opt/pdk/ams/410/spectre/c35/soac/soac.scs
Reading file:  /opt/pdk/ams/410/spectre/c35/soac/processOption.scs
Reading file:  /opt/pdk/ams/410/spectre/c35/soac/process.scs
Reading file:  /opt/pdk/ams/410/spectre/c35/soac/soac.va

Warning from spectre during AHDL read-in.
    WARNING (VACOMP-2435): The environment variable CDS_AHDLCMI_ENABLE is no longer supported. Therefore, the simulator will use the default compiled C code flow.

Reading link:  /opt/tools/cadence/installs/SPECTRE241/tools.lnx86/spectre/etc/ahdl/constants.h
Reading file:  /opt/tools/cadence/installs/SPECTRE241/tools.lnx86/spectre/etc/ahdl/constants.vams
Reading link:  /opt/tools/cadence/installs/SPECTRE241/tools.lnx86/spectre/etc/ahdl/discipline.h
Reading file:  /opt/tools/cadence/installs/SPECTRE241/tools.lnx86/spectre/etc/ahdl/disciplines.vams
Reading file:  /opt/pdk/ams/410/spectre/c35/processOption/C35B4C3.scs
Reading file:  /opt/pdk/ams/410/spectre/c35/soac/cmos53.scs
Reading file:  /opt/pdk/ams/410/spectre/c35/soac/res.scs
Reading file:  /opt/pdk/ams/410/spectre/c35/soac/cap.scs
Reading file:  /opt/pdk/ams/410/spectre/c35/soac/bip.scs
Reading file:  /opt/pdk/ams/410/spectre/c35/soac/ind.scs
Reading file:  /opt/pdk/ams/410/spectre/c35/soac/esddiode.scs
Time for NDB Parsing: CPU = 189.445 ms, elapsed = 367.449 ms.
Time accumulated: CPU = 388.707 ms, elapsed = 367.453 ms.
Peak resident memory used = 175 Mbytes.

Time for Elaboration: CPU = 29.368 ms, elapsed = 30.663 ms.
Time accumulated: CPU = 418.262 ms, elapsed = 398.302 ms.
Peak resident memory used = 184 Mbytes.


Notice from spectre during hierarchy flattening.
    The value 'psf' specified for the 'checklimitdest' option will no longer be supported in future releases. Use 'spectre -h' to see other recommended values for the 'checklimitdest' option.


*****************************************************************************************
* 
* INFO: AMS_processOption = C35B4C3
* 
* INFO: Valid Modules  PIP VG5 HIRES
* 
*****************************************************************************************



Warning from spectre during hierarchy flattening.
    WARNING (SPECTRE-8527): There are some nodes and instances removed from the netlist topology check. Check the circuit and correct the topology. Or use preserve_inst to keep them if necessary.

***********************************************
  Total removed instances 6 ( dangling 6, terminals connected together 0)  

Warning from spectre during hierarchy flattening.
    WARNING (SPECTRE-8529): Dangling instance. V9 is removed.
    WARNING (SPECTRE-8529): Dangling instance. V8 is removed.
    WARNING (SPECTRE-8529): Dangling instance. V0_turbo_m2 is removed.
    WARNING (SPECTRE-8529): Dangling instance. V2 is removed.
    WARNING (SPECTRE-8529): Dangling instance. R0 is removed.
        Further occurrences of this warning will be suppressed.


  Total removed nodes 5 ( dangling nodes 5, floating nodes 0 )

Warning from spectre during hierarchy flattening.
    WARNING (SPECTRE-8530): Dangling node. vinn is removed.
    WARNING (SPECTRE-8530): Dangling node. bias is removed.
    WARNING (SPECTRE-8530): Dangling node. en is removed.
    WARNING (SPECTRE-8530): Dangling node. vctrl is removed.
    WARNING (SPECTRE-8530): Dangling node. vinp is removed.
        Further occurrences of this warning will be suppressed.

***********************************************
Time for EDB Visiting: CPU = 2.759 ms, elapsed = 2.75993 ms.
Time accumulated: CPU = 421.2 ms, elapsed = 401.239 ms.
Peak resident memory used = 186 Mbytes.

Loading /opt/tools/cadence/installs/SPECTRE241/tools.lnx86/mdl/lib/64bit/libSpectreEH_sh.so ...

Warning from spectre during initial setup.
    WARNING (SPECTRE-16460): SOAC_cvarm_vspsub:Specified subcircuit master `cvarm' was not found.
    WARNING (SPECTRE-16462): SOAC_cvarm_vspsub:Error in specification of subcircuit master. Assert is ignored.
    WARNING (SPECTRE-16460): SOAC_cvarm_vbs:Specified subcircuit master `cvarm' was not found.
    WARNING (SPECTRE-16462): SOAC_cvarm_vbs:Error in specification of subcircuit master. Assert is ignored.
    WARNING (SPECTRE-16460): SOAC_cvarm_vgb:Specified subcircuit master `cvarm' was not found.
    WARNING (SPECTRE-16462): SOAC_cvarm_vgb:Error in specification of subcircuit master. Assert is ignored.
    WARNING (SPECTRE-16460): SOAC_cvart_vspsub:Specified subcircuit master `cvart' was not found.
    WARNING (SPECTRE-16462): SOAC_cvart_vspsub:Error in specification of subcircuit master. Assert is ignored.
    WARNING (SPECTRE-16460): SOAC_cvart_vbs:Specified subcircuit master `cvart' was not found.
        Further occurrences of this warning will be suppressed.
    WARNING (SPECTRE-16462): SOAC_cvart_vbs:Error in specification of subcircuit master. Assert is ignored.
        Further occurrences of this warning will be suppressed.
Notice from spectre during initial setup.
    Ignorevaref=yes is ignored since all nodes are connected to Verilog-A modules.
Notice from spectre during topology check.
    No connections to node `0'.
Notice from spectre during initial setup.
    Multithreading is disabled due to the size of the design being too small.


Netlist title:
        // Generated for: spectre


Global user options:
         psfversion = 1.4.0
            vabstol = 1e-06
            iabstol = 1e-12
               temp = 27
           homotopy = 5
              limit = delta
         compatible = spice2
               gmin = 1e-12
             rforce = 1
           maxnotes = 5
           maxwarns = 5
             digits = 5
               cols = 80
             pivrel = 0.001
           sensfile = ../psf/sens.output
     checklimitdest = psf
     enable_pre_ver = yes
      ignorezerovar = yes
               save = allpub
             reltol = 0.0001
               tnom = 27
             scalem = 1
              scale = 1

Scoped user options:

Circuit inventory:
              nodes 7
           resistor 1     
            vsource 6     

Analysis and control statement inventory:
                 dc 1     
               info 7     

Output statements:
             .probe 0     
           .measure 0     
               save 0     

Design checks inventory:
          paramtest 1     
             assert 175   


Notice from spectre during initial setup.
    APS enabled.
    73 warnings suppressed.

Time for parsing: CPU = 12.539 ms, elapsed = 555.582 ms.
Time accumulated: CPU = 433.859 ms, elapsed = 956.94 ms.
Peak resident memory used = 191 Mbytes.

~~~~~~~~~~~~~~~~~~~~~~
Pre-Simulation Summary
~~~~~~~~~~~~~~~~~~~~~~
   -   (APS) Multi-threading. The recommended number of threads is 1, consider adding +mt=1 on command line.

Warning from spectre.
    WARNING (SPECTRE-470): No ground node was found in the netlist. To continue with this simulation, Spectre will add a gmin. If you want to use a specific ground node, define that as the first entry in the Spectre global statement and rerun the simulation.

~~~~~~~~~~~~~~~~~~~~~~

******************
DC Analysis `dcOp'
******************

Notice from spectre during DC analysis `dcOp'.
    No checklimit analysis defined for asserts. A default checklimit analysis 'SpectreChecklimitAnal' has been created with all asserts enabled.


Opening the PSF file ../psf/dcOp.dc ...
Important parameter values:
    reltol = 100e-06
    temp = 27 C
    tnom = 27 C
    tempeffects = all
    gmindc = 1 pS
    rabsshort = 1 mOhm

Error found by spectre during DC analysis `dcOp'.
    ERROR (SPECTRE-16262): No outputs were selected.
    ERROR (SPECTRE-16654):  There is no equation in the netlist.

Analysis `dcOp' was terminated prematurely due to an error.

Error found by spectre during info `dcOpInfo'.
    ERROR (SPECTRE-16262): No outputs were selected.

dcOpInfo: writing operating point information to rawfile.

Opening the PSF file ../psf/dcOpInfo.info ...

Error found by spectre during DC analysis, during info `dcOpInfo'.
    ERROR (SPECTRE-16041): The `dcOpInfo' analysis is skipped due to inability to compute operating point. Run 'mmsimpack' (see mmsimpack -h for detailed usage information) to package the netlist and log files as a compressed tar file. Then, contact your Cadence representative or submit a service request via Cadence Online Support, including the tar file and any other information that could help identify the problem.

Analysis `dcOpInfo' was terminated prematurely due to an error.

Error found by spectre during info `modelParameter'.
    ERROR (SPECTRE-16262): No outputs were selected.

modelParameter: writing model parameter values to rawfile.

Opening the PSF file ../psf/modelParameter.info ...
Analysis `modelParameter' was terminated prematurely due to an error.

Error found by spectre during info `element'.
    ERROR (SPECTRE-16262): No outputs were selected.

element: writing instance parameter values to rawfile.

Opening the PSF file ../psf/element.info ...
Analysis `element' was terminated prematurely due to an error.

Error found by spectre during info `outputParameter'.
    ERROR (SPECTRE-16262): No outputs were selected.

outputParameter: writing output parameter values to rawfile.

Opening the PSF file ../psf/outputParameter.info ...
Analysis `outputParameter' was terminated prematurely due to an error.

Error found by spectre during info `designParamVals'.
    ERROR (SPECTRE-16262): No outputs were selected.

designParamVals: writing netlist parameters to rawfile.

Opening the PSFASCII file ../psf/designParamVals.info ...
Analysis `designParamVals' was terminated prematurely due to an error.

Error found by spectre during info `primitives'.
    ERROR (SPECTRE-16262): No outputs were selected.

primitives: writing primitives to rawfile.

Opening the PSFASCII file ../psf/primitives.info.primitives ...
Analysis `primitives' was terminated prematurely due to an error.

Error found by spectre during info `subckts'.
    ERROR (SPECTRE-16262): No outputs were selected.

subckts: writing subcircuits to rawfile.

Opening the PSFASCII file ../psf/subckts.info.subckts ...
Analysis `subckts' was terminated prematurely due to an error.
Licensing Information:
Lic Summary:
[14:15:58.188321] Cdslmd servers:3000@lic08.ug.kth.se:29000@lic06.ug.kth.se
[14:15:58.188361] Feature usage summary:
[14:15:58.188363] Virtuoso_Multi_mode_Simulation


Aggregate audit (2:15:58 PM, Thur Feb 26, 2026):
Time used: CPU = 476 ms, elapsed = 1.01 s, util. = 47.2%.
Time spent in licensing: elapsed = 57.7 ms, percentage of total = 5.72%.
Peak memory used = 196 Mbytes.
Simulation started at: 2:15:57 PM, Thur Feb 26, 2026, ended at: 2:15:58 PM, Thur Feb 26, 2026, with elapsed time (wall clock): 1.01 s.
spectre completes with 10 errors, 29 warnings, and 8 notices.
