
Spectre (R) Circuit Simulator
Version 24.1.0.288.isr5 64bit -- 3 Apr 2025
Copyright (C) 1989-2025 Cadence Design Systems, Inc. All rights reserved worldwide. Cadence and Spectre are registered trademarks of Cadence Design Systems, Inc. All others are the property of their respective holders.

Includes RSA BSAFE(R) Cryptographic or Security Protocol Software from RSA Security, Inc.

User: davidevi   Host: il2244vt26_davidevi   HostID: 11AC2C00   PID: 1057819
Memory  available: 3.0343 TB  physical: 3.2467 TB
Linux   : Rocky Linux release 8.10 (Green Obsidian)
CPU Type: Intel(R) Xeon(R) CPU E7-8857 v2 @ 3.00GHz
        Socket: Processors [Frequency]
        0:       0 [3300.0],  1 [1200.0],  2 [3000.0],  3 [1500.0],  4 [1200.0]
                 5 [1400.0],  6 [1200.0],  7 [1200.0],  8 [2900.0],  9 [1200.0]
                10 [3400.0], 11 [2999.9]
        1:      12 [1200.0], 13 [2700.0], 14 [1200.0], 15 [1200.0], 16 [1200.0]
                17 [1200.0], 18 [1200.0], 19 [1200.0], 20 [3398.1], 21 [3398.1]
                22 [1200.0], 23 [3398.1]
        2:      24 [1500.0], 25 [2700.0], 26 [2800.0], 27 [1200.0], 28 [1200.0]
                29 [1200.0], 30 [1200.0], 31 [2999.9], 32 [2600.0], 33 [2999.9]
                34 [2999.9], 35 [3000.0]
        3:      36 [2999.9], 37 [2999.9], 38 [2500.0], 39 [1200.0], 40 [2600.0]
                41 [1200.0], 42 [1200.0], 43 [1200.0], 44 [2500.0], 45 [2999.9]
                46 [1200.0], 47 [2500.0]
        
System load averages (1min, 5min, 15min) : 25.8 %, 24.6 %, 20.0 %
HPC is enabled


Simulating `input.scs' on il2244vt26_davidevi at 9:13:34 AM, Thur Apr 16, 2026 (process id: 1057819).
Current working directory: /home/davidevi/Desktop/myproject/Sim/VGA/VGA_1_tb/adexl/results/data/MonteCarlo.3/31/Linerity_MC/groupRunDataDir/netlist
Command line:
    /opt/tools/cadence/installs/SPECTRE241/tools/bin/spectre -64  \
        input.scs +escchars +log ../psf/spectre.out -format psfbin  \
        +rtsf -raw ../psf +aps +mt +lqtimeout 900 -maxw 5 -maxn 5  \
        +param /opt/pdk/ams/410/spectre/ams_range.lmts -env ade  \
        -ahdllibdir  \
        /home/davidevi/Desktop/myproject/Sim/VGA/VGA_1_tb/adexl/results/data/MonteCarlo.3/sharedData/Job473/ahdl/input.ahdlSimDB  \
        +logstatus  \
        +adespetkn=0001089D13A302B663E41FB550AF0DF415A679A322D5069144BF588C12F604E07EF416DC01A319B562BB63D304F442BD45A370E9448A43E752C82FEC7BEF4F9207FF79D15D9175FF34986BDD0AF002BA50FD7FD707E002A700AC1C8618F746EA0EAB79D128F874D3349879D118F874D334981031B0C5DCEE5D78000036BE

Simulation Id: 6nkFohfP74XVeZ3g
Licensing Information:
[09:13:34.121762] Configured Lic search path (24.01-s002): 3000@lic08.ug.kth.se:29000@lic06.ug.kth.se

Licensing Information:
[09:13:34.216905] Periodic Lic check successful

Loading /opt/tools/cadence/installs/SPECTRE241/tools.lnx86/cmi/lib/64bit/5.0/libinfineon_sh.so ...
Loading /opt/tools/cadence/installs/SPECTRE241/tools.lnx86/cmi/lib/64bit/5.0/libphilips_I_sh.so ...
Loading /opt/tools/cadence/installs/SPECTRE241/tools.lnx86/cmi/lib/64bit/5.0/libphilips_sh.so ...
Loading /opt/tools/cadence/installs/SPECTRE241/tools.lnx86/cmi/lib/64bit/5.0/libsparam_sh.so ...
Loading /opt/tools/cadence/installs/SPECTRE241/tools.lnx86/cmi/lib/64bit/5.0/libstmodels_sh.so ...

Warning from spectre.
    WARNING (SPECTRE-691): This CPU processor does not support x86 advanced vector extensions instructions. This may affect math operations and slow down the simulation.

Reading file:  /home/davidevi/Desktop/myproject/Sim/VGA/VGA_1_tb/adexl/results/data/MonteCarlo.3/31/Linerity_MC/groupRunDataDir/netlist/input.scs
Reading file:  /opt/pdk/ams/410/spectre/ams_range.lmts

Warning from spectre during read of parameter soft limits file `/opt/pdk/ams/410/spectre/ams_range.lmts', during circuit read-in.
    WARNING (SPECTRE-8360): line 1511: `ac' is an undefined primitive device.
    WARNING (SPECTRE-8360): line 1512: `ac' is an undefined primitive device.
    WARNING (SPECTRE-8360): line 1513: `ac' is an undefined primitive device.
    WARNING (SPECTRE-8360): line 1514: `ac' is an undefined primitive device.
    WARNING (SPECTRE-8360): line 1515: `ac' is an undefined primitive device.
        Further occurrences of this warning will be suppressed.

Reading file:  /opt/tools/cadence/installs/SPECTRE241/tools.lnx86/spectre/etc/configs/spectre.cfg
Reading file:  /opt/pdk/ams/410/spectre/c35/soac/soac.scs
Reading file:  /opt/pdk/ams/410/spectre/c35/soac/processOption.scs
Reading file:  /opt/pdk/ams/410/spectre/c35/soac/process.scs
Reading file:  /opt/pdk/ams/410/spectre/c35/soac/soac.va

Warning from spectre during AHDL read-in.
    WARNING (VACOMP-2435): The environment variable CDS_AHDLCMI_ENABLE is no longer supported. Therefore, the simulator will use the default compiled C code flow.

Reading link:  /opt/tools/cadence/installs/SPECTRE241/tools.lnx86/spectre/etc/ahdl/constants.h
Reading file:  /opt/tools/cadence/installs/SPECTRE241/tools.lnx86/spectre/etc/ahdl/constants.vams
Reading link:  /opt/tools/cadence/installs/SPECTRE241/tools.lnx86/spectre/etc/ahdl/discipline.h
Reading file:  /opt/tools/cadence/installs/SPECTRE241/tools.lnx86/spectre/etc/ahdl/disciplines.vams
Reading file:  /opt/pdk/ams/410/spectre/c35/processOption/C35B4C3.scs
Reading file:  /opt/pdk/ams/410/spectre/c35/soac/cmos53.scs
Reading file:  /opt/pdk/ams/410/spectre/c35/soac/res.scs
Reading file:  /opt/pdk/ams/410/spectre/c35/soac/cap.scs
Reading file:  /opt/pdk/ams/410/spectre/c35/soac/bip.scs
Reading file:  /opt/pdk/ams/410/spectre/c35/soac/ind.scs
Reading file:  /opt/pdk/ams/410/spectre/c35/soac/esddiode.scs
Time for NDB Parsing: CPU = 177.591 ms, elapsed = 316.057 ms.
Time accumulated: CPU = 385.083 ms, elapsed = 316.06 ms.
Peak resident memory used = 175 Mbytes.

Existing shared object for module modn_ahdl is up to date.
Installed compiled interface for modn_ahdl.
Existing shared object for module modp_ahdl is up to date.
Installed compiled interface for modp_ahdl.
Existing shared object for module cpoly_ahdl is up to date.
Installed compiled interface for cpoly_ahdl.
Existing shared object for module rpolyh_ahdl is up to date.
Installed compiled interface for rpolyh_ahdl.
Existing shared object for module bsource_19b458 is up to date.
Installed compiled interface for bsource_19b458.
Time for Elaboration: CPU = 60.207 ms, elapsed = 62.638 ms.
Time accumulated: CPU = 445.471 ms, elapsed = 378.878 ms.
Peak resident memory used = 188 Mbytes.


Notice from spectre during hierarchy flattening.
    The value 'psf' specified for the 'checklimitdest' option will no longer be supported in future releases. Use 'spectre -h' to see other recommended values for the 'checklimitdest' option.


*****************************************************************************************
* 
* INFO: AMS_processOption = C35B4C3
* 
* INFO: Valid Modules  PIP VG5 HIRES
* 
*****************************************************************************************


Time for EDB Visiting: CPU = 9.923 ms, elapsed = 9.92393 ms.
Time accumulated: CPU = 455.614 ms, elapsed = 389.02 ms.
Peak resident memory used = 191 Mbytes.

Loading /opt/tools/cadence/installs/SPECTRE241/tools.lnx86/mdl/lib/64bit/libSpectreEH_sh.so ...

Warning from spectre during initial setup.
    WARNING (SPECTRE-16460): SOAC_cvarm_vspsub:Specified subcircuit master `cvarm' was not found.
    WARNING (SPECTRE-16462): SOAC_cvarm_vspsub:Error in specification of subcircuit master. Assert is ignored.
    WARNING (SPECTRE-16460): SOAC_cvarm_vbs:Specified subcircuit master `cvarm' was not found.
    WARNING (SPECTRE-16462): SOAC_cvarm_vbs:Error in specification of subcircuit master. Assert is ignored.
    WARNING (SPECTRE-16460): SOAC_cvarm_vgb:Specified subcircuit master `cvarm' was not found.
    WARNING (SPECTRE-16462): SOAC_cvarm_vgb:Error in specification of subcircuit master. Assert is ignored.
    WARNING (SPECTRE-16460): SOAC_cvart_vspsub:Specified subcircuit master `cvart' was not found.
    WARNING (SPECTRE-16462): SOAC_cvart_vspsub:Error in specification of subcircuit master. Assert is ignored.
    WARNING (SPECTRE-16460): SOAC_cvart_vbs:Specified subcircuit master `cvart' was not found.
        Further occurrences of this warning will be suppressed.
    WARNING (SPECTRE-16462): SOAC_cvart_vbs:Error in specification of subcircuit master. Assert is ignored.
        Further occurrences of this warning will be suppressed.
Notice from spectre during topology check.
    Only one connection to the following 54 nodes:
        I0.MN6.psub!
        I0.MN5.psub!
        I0.MN4.psub!
        I0.MN3.psub!
        I0.MN2.psub!
        Further occurrences of this notice will be suppressed.
Notice from spectre during initial setup.
    Multithreading is disabled due to the size of the design being too small.


Netlist title:
        // Point Netlist Generated on: Apr 16 09:13:34 2026


Global user options:
         psfversion = 1.4.0
            vabstol = 1e-06
            iabstol = 1e-12
               temp = 85
           homotopy = 5
              limit = delta
         compatible = spice2
               gmin = 1e-12
             rforce = 1
           maxnotes = 5
           maxwarns = 5
             digits = 5
               cols = 80
             pivrel = 0.001
           sensfile = ../psf/sens.output
     checklimitdest = psf
     enable_pre_ver = yes
      ignorezerovar = yes
               save = allpub
             reltol = 0.0001
               tnom = 27
             scalem = 1
              scale = 1

Scoped user options:

Circuit inventory:
              nodes 88
            bsim3v3 35    
     bsource_19b458 2     
          capacitor 38    
         cpoly_ahdl 17    
            isource 1     
          modn_ahdl 19    
          modp_ahdl 16    
           resistor 1     
        rpolyh_ahdl 2     
            vsource 8     

Analysis and control statement inventory:
                 dc 1     
               info 8     
         montecarlo 1     
               tran 1     

Output statements:
             .probe 0     
           .measure 0     
               save 0     

Design checks inventory:
          paramtest 55    
             assert 175   


Notice from spectre during initial setup.
    APS enabled.
    1 notice suppressed.
    72 warnings suppressed.

Time for parsing: CPU = 19.319 ms, elapsed = 643.793 ms.
Time accumulated: CPU = 475.111 ms, elapsed = 1.03299 s.
Peak resident memory used = 198 Mbytes.

~~~~~~~~~~~~~~~~~~~~~~
Pre-Simulation Summary
~~~~~~~~~~~~~~~~~~~~~~
   -   (APS) Multi-threading. The recommended number of threads is 1, consider adding +mt=1 on command line.
~~~~~~~~~~~~~~~~~~~~~~

*************************************************
Monte Carlo Analysis `mc1': iteration = (1 -> 50)
*************************************************
Important parameter values:
    seed = 12345
    sampling = lds
    variations = all
    firstrun = 1
    numruns = 50
    nullmfactorcorrelation = no
    donominal = yes
    method = standard

**** Performing nominal run for `mc1'

******************
DC Analysis `dcOp'
******************

Notice from spectre during DC analysis `dcOp', during Monte Carlo analysis `mc1'.
    No checklimit analysis defined for asserts. A default checklimit analysis 'SpectreChecklimitAnal' has been created with all asserts enabled.


Opening the PSF file ../psf/nom/dcOp.dc ...
Important parameter values:
    reltol = 100e-06
    abstol(V) = 1 uV
    abstol(I) = 1 pA
    temp = 85 C
    tnom = 27 C
    tempeffects = all
    gmindc = 1 pS
    rabsshort = 1 mOhm

Notice from spectre during DC analysis `dcOp', during Monte Carlo analysis `mc1'.
    Bad pivoting is found during DC analysis. Option dc_pivot_check=yes is recommended for possible improvement of convergence.


Maximum value achieved for any signal of each quantity: 
V: V(S<0>) = 3.3 V
I: I(V0:p) = 6.445 uA
Maximum value of each quantity, excluding Verilog-A modules or dangling current sources:
V: V(net1) = 1.6 V
I: I(V0:p) = 6.445 uA

Warning from spectre during check, during DC analysis `dcOp', during Monte Carlo analysis `mc1'.
    WARNING (CMI-2943): Parameter checks have been ignored because the valid value for parameter 'trise' could not be found in 'C1'.
    WARNING (CMI-2943): Parameter checks have been ignored because the valid value for parameter 'trise' could not be found in 'I0.R2.CM'.
    WARNING (CMI-2943): Parameter checks have been ignored because the valid value for parameter 'trise' could not be found in 'I0.R2.CS1'.
    WARNING (CMI-2943): Parameter checks have been ignored because the valid value for parameter 'trise' could not be found in 'I0.R2.CS0'.
    WARNING (CMI-2943): Parameter checks have been ignored because the valid value for parameter 'trise' could not be found in 'I0.C8<3>.C1'.
        Further occurrences of this warning will be suppressed.

Convergence achieved in 17 iterations.
DC simulation time: CPU = 87.395 ms, elapsed = 91.6409 ms.
Total time required for dc analysis `dcOp': CPU = 87.504 ms, elapsed = 91.747 ms, util. = 95.4%.
Time accumulated: CPU = 586.579 ms, elapsed = 1.14984 s.
Peak resident memory used = 207 Mbytes.


Notice from spectre during Monte Carlo analysis `mc1'.
    34 warnings suppressed.

dcOpInfo: writing operating point information to rawfile.

Opening the PSF file ../psf/nom/dcOpInfo.info ...

************************************************
Transient Analysis `tran': time = (0 s -> 40 ms)
************************************************

Notice from spectre during IC analysis, during transient analysis `tran', during Monte Carlo analysis `mc1'.
    Bad pivoting is found during DC analysis. Option dc_pivot_check=yes is recommended for possible improvement of convergence.
Warning from spectre during check, during IC analysis, during transient analysis `tran', during Monte Carlo analysis `mc1'.
    WARNING (CMI-2943): Parameter checks have been ignored because the valid value for parameter 'trise' could not be found in 'C1'.
    WARNING (CMI-2943): Parameter checks have been ignored because the valid value for parameter 'trise' could not be found in 'I0.R2.CM'.
    WARNING (CMI-2943): Parameter checks have been ignored because the valid value for parameter 'trise' could not be found in 'I0.R2.CS1'.
    WARNING (CMI-2943): Parameter checks have been ignored because the valid value for parameter 'trise' could not be found in 'I0.R2.CS0'.
    WARNING (CMI-2943): Parameter checks have been ignored because the valid value for parameter 'trise' could not be found in 'I0.C8<3>.C1'.
        Further occurrences of this warning will be suppressed.

Convergence achieved in 2 iterations.
DC simulation time: CPU = 1.119 ms, elapsed = 1.12009 ms.

Opening the PSF file ../psf/nom/tran.tran.tran ...
Important parameter values:
    start = 0 s
    outputstart = 0 s
    stop = 40 ms
    step = 40 us
    maxstep = 400 us
    ic = all
    useprevic = no
    skipdc = no
    reltol = 10e-06
    abstol(V) = 1 uV
    abstol(I) = 1 pA
    temp = 85 C
    tnom = 27 C
    tempeffects = all
    errpreset = conservative
    method = gear2only
    lteratio = 10
    relref = alllocal
    cmin = 0 F
    gmin = 1 pS
    rabsshort = 1 mOhm


Notice from spectre during transient analysis `tran', during Monte Carlo analysis `mc1'.
    Multithreading is disabled due to the size of the design being too small.


Output and IC/nodeset summary:
                 save   8       (current)
                 save   87      (voltage)

    tran: time = 1.017 ms    (2.54 %), step = 48.77 us     (122 m%)
    tran: time = 3.03 ms     (7.58 %), step = 47.68 us     (119 m%)
    tran: time = 5.043 ms    (12.6 %), step = 46.82 us     (117 m%)
    tran: time = 7.01 ms     (17.5 %), step = 49.38 us     (123 m%)
    tran: time = 9.023 ms    (22.6 %), step = 48.2 us      (120 m%)
    tran: time = 11.04 ms    (27.6 %), step = 47.22 us     (118 m%)
    tran: time = 13 ms       (32.5 %), step = 50 us        (125 m%)
    tran: time = 15.02 ms    (37.5 %), step = 48.76 us     (122 m%)
    tran: time = 17.03 ms    (42.6 %), step = 47.66 us     (119 m%)
    tran: time = 19.04 ms    (47.6 %), step = 46.81 us     (117 m%)
    tran: time = 21.01 ms    (52.5 %), step = 49.37 us     (123 m%)
    tran: time = 23.02 ms    (57.6 %), step = 48.18 us     (120 m%)
    tran: time = 25.04 ms    (62.6 %), step = 47.21 us     (118 m%)
    tran: time = 27 ms       (67.5 %), step = 50 us        (125 m%)
    tran: time = 29.02 ms    (72.5 %), step = 48.74 us     (122 m%)
    tran: time = 31.03 ms    (77.6 %), step = 47.65 us     (119 m%)
    tran: time = 33.04 ms    (82.6 %), step = 46.8 us      (117 m%)
    tran: time = 35.01 ms    (87.5 %), step = 49.35 us     (123 m%)
    tran: time = 37.02 ms    (92.6 %), step = 48.17 us     (120 m%)
    tran: time = 39.04 ms    (97.6 %), step = 47.2 us      (118 m%)
Number of accepted tran steps =             852

Maximum value achieved for any signal of each quantity: 
V: V(S<0>) = 3.3 V
I: I(V0:p) = 6.446 uA
Maximum value of each quantity, excluding Verilog-A modules or dangling current sources:
V: V(vout_filt) = 1.614 V
I: I(V0:p) = 6.446 uA

~~~~~~~~~~~~~~~~~~~~~~~~~~~~~~~~~
Post-Transient Simulation Summary
~~~~~~~~~~~~~~~~~~~~~~~~~~~~~~~~~
   -   To further speed up simulation, consider
          add ++aps on command line
   -   Non-default settings that could significantly slow down simulation
          errpreset = conservative, default moderate
          reltol = 10e-06, default 100e-06 (conservative)
~~~~~~~~~~~~~~~~~~~~~~~~~~~~~~~~~


During simulation, the CPU load for active processors is :
         0 (33.1 %)      1 (7.0 %)       2 (10.0 %)      3 (22.0 %)
         4 (11.9 %)      5 (17.4 %)      6 (68.5 %)      7 (6.2 %)
         8 (11.7 %)      9 (6.2 %)      10 (15.6 %)     11 (100.0 %)
        12 (4.9 %)      13 (77.3 %)     14 (1.9 %)      15 (4.3 %)
        16 (1.9 %)      17 (1.3 %)      18 (2.5 %)      19 (17.9 %)
        20 (81.5 %)     21 (94.4 %)     22 (5.6 %)      23 (100.0 %)
        24 (63.8 %)     25 (2.5 %)      26 (2.5 %)      27 (1.9 %)
        28 (10.0 %)     29 (12.3 %)     30 (1.2 %)      31 (26.1 %)
        33 (6.1 %)      34 (37.3 %)     35 (87.0 %)     36 (97.6 %)
        37 (4.4 %)      39 (14.1 %)     40 (1.9 %)      41 (5.6 %)
        42 (1.2 %)      44 (1.3 %)      45 (100.0 %)    46 (5.6 %)
        47 (2.5 %)      
        Total: 1190.0%
Initial condition solution time: CPU = 1.159 ms, elapsed = 1.16205 ms.
Intrinsic tran analysis time:    CPU = 519.596 ms, elapsed = 521.356 ms.
Total time required for tran analysis `tran': CPU = 523.107 ms, elapsed = 525.708 ms, util. = 99.5%.
Time accumulated: CPU = 1.11859 s, elapsed = 1.68817 s.
Peak resident memory used = 210 Mbytes.


Notice from spectre during transient analysis `tran', during Monte Carlo analysis `mc1'.
    34 warnings suppressed.

finalTimeOP: writing operating point information to rawfile.

Opening the PSF file ../psf/nom/finalTimeOP.info ...
modelParameter: writing model parameter values to rawfile.

Opening the PSF file ../psf/nom/modelParameter.info ...
element: writing instance parameter values to rawfile.

Opening the PSF file ../psf/nom/element.info ...
outputParameter: writing output parameter values to rawfile.

Opening the PSF file ../psf/nom/outputParameter.info ...
designParamVals: writing netlist parameters to rawfile.

Opening the PSFASCII file ../psf/nom/designParamVals.info ...
primitives: writing primitives to rawfile.

Opening the PSFASCII file ../psf/nom/primitives.info.primitives ...
subckts: writing subcircuits to rawfile.

Opening the PSFASCII file ../psf/nom/subckts.info.subckts ...
Opening iteration number and data-directory mapping file:  /home/davidevi/Desktop/myproject/Sim/VGA/VGA_1_tb/adexl/results/data/MonteCarlo.3/31/Linerity_MC/groupRunDataDir/netlist/../psf/mc1.mapping

Statistical parameters:
    Defined process parameters: 629
    Defined mismatch parameters (subckt based): 86
    Non-referenced mismatch parameters: 80
    Number of random variables: 718
    Gaussian truncation for process parameters: 4.00 sigma
    Gaussian truncation for mismatch parameters: 4.00 sigma


Opening the PSF file ../psf/mc1_dcOp.montecarlo ...

Opening the PSF file ../psf/mc1_dcOpInfo.montecarlo ...

Opening the PSF file ../psf/mc1_tran.montecarlo ...

Opening the PSF file ../psf/mc1_finalTimeOP.montecarlo ...

Opening the PSF file ../psf/mc1_modelParameter.montecarlo ...

Opening the PSF file ../psf/mc1_element.montecarlo ...

Opening the PSF file ../psf/mc1_outputParameter.montecarlo ...

Opening the PSF file ../psf/mc1_designParamVals.montecarlo ...

Opening the PSF file ../psf/mc1_primitives.montecarlo ...

Opening the PSF file ../psf/mc1_subckts.montecarlo ...

**** Performing monte carlo loop for `mc1'

1   0.00% 

*****************************************************************************************
* 
* INFO: AMS_processOption = C35B4C3
* 
* INFO: Valid Modules  PIP VG5 HIRES
* 
*****************************************************************************************


******************
DC Analysis `dcOp'
******************

Opening the PSF file ../psf/mc1_separate/001/dcOp.dc ...
Important parameter values:
    reltol = 100e-06
    abstol(V) = 1 uV
    abstol(I) = 1 pA
    temp = 85 C
    tnom = 27 C
    tempeffects = all
    gmindc = 1 pS
    rabsshort = 1 mOhm

Notice from spectre at iteration = 1 during DC analysis `dcOp', during Monte Carlo analysis `mc1'.
    Bad pivoting is found during DC analysis. Option dc_pivot_check=yes is recommended for possible improvement of convergence.


Maximum value achieved for any signal of each quantity: 
V: V(S<0>) = 3.3 V
I: I(V0:p) = 6.244 uA
Maximum value of each quantity, excluding Verilog-A modules or dangling current sources:
V: V(net1) = 1.6 V
I: I(V0:p) = 6.244 uA

Warning from spectre at iteration = 1 during check, during DC analysis `dcOp', during Monte Carlo analysis `mc1'.
    WARNING (CMI-2943): Parameter checks have been ignored because the valid value for parameter 'trise' could not be found in 'C1'.
    WARNING (CMI-2943): Parameter checks have been ignored because the valid value for parameter 'trise' could not be found in 'I0.R2.CM'.
    WARNING (CMI-2943): Parameter checks have been ignored because the valid value for parameter 'trise' could not be found in 'I0.R2.CS1'.
    WARNING (CMI-2943): Parameter checks have been ignored because the valid value for parameter 'trise' could not be found in 'I0.R2.CS0'.
    WARNING (CMI-2943): Parameter checks have been ignored because the valid value for parameter 'trise' could not be found in 'I0.C8<3>.C1'.
        Further occurrences of this warning will be suppressed.

Convergence achieved in 17 iterations.
DC simulation time: CPU = 5.813 ms, elapsed = 7.25389 ms.
Total time required for dc analysis `dcOp': CPU = 6.343 ms, elapsed = 7.78198 ms, util. = 81.5%.
Time accumulated: CPU = 1.20461 s, elapsed = 1.79166 s.
Peak resident memory used = 213 Mbytes.


Notice from spectre at iteration = 1 during Monte Carlo analysis `mc1'.
    34 warnings suppressed.

dcOpInfo: writing operating point information to rawfile.

Opening the PSF file ../psf/mc1_separate/001/dcOpInfo.info ...

************************************************
Transient Analysis `tran': time = (0 s -> 40 ms)
************************************************

Opening the PSF file ../psf/mc1_separate/001/tran.tran.tran ...

Notice from spectre at iteration = 1 during IC analysis, during transient analysis `tran', during Monte Carlo analysis `mc1'.
    Bad pivoting is found during DC analysis. Option dc_pivot_check=yes is recommended for possible improvement of convergence.
Warning from spectre at iteration = 1 during check, during IC analysis, during transient analysis `tran', during Monte Carlo analysis `mc1'.
    WARNING (CMI-2943): Parameter checks have been ignored because the valid value for parameter 'trise' could not be found in 'C1'.
    WARNING (CMI-2943): Parameter checks have been ignored because the valid value for parameter 'trise' could not be found in 'I0.R2.CM'.
    WARNING (CMI-2943): Parameter checks have been ignored because the valid value for parameter 'trise' could not be found in 'I0.R2.CS1'.
    WARNING (CMI-2943): Parameter checks have been ignored because the valid value for parameter 'trise' could not be found in 'I0.R2.CS0'.
    WARNING (CMI-2943): Parameter checks have been ignored because the valid value for parameter 'trise' could not be found in 'I0.C8<3>.C1'.
        Further occurrences of this warning will be suppressed.

Convergence achieved in 17 iterations.
DC simulation time: CPU = 2.674 ms, elapsed = 2.6741 ms.
Important parameter values:
    start = 0 s
    outputstart = 0 s
    stop = 40 ms
    step = 40 us
    maxstep = 400 us
    ic = all
    useprevic = no
    skipdc = no
    reltol = 10e-06
    abstol(V) = 1 uV
    abstol(I) = 1 pA
    temp = 85 C
    tnom = 27 C
    tempeffects = all
    errpreset = conservative
    method = gear2only
    lteratio = 10
    relref = alllocal
    cmin = 0 F
    gmin = 1 pS
    rabsshort = 1 mOhm


Notice from spectre at iteration = 1 during transient analysis `tran', during Monte Carlo analysis `mc1'.
    Multithreading is disabled due to the size of the design being too small.


Output and IC/nodeset summary:
                 save   8       (current)
                 save   87      (voltage)

    tran: time = 1.016 ms    (2.54 %), step = 48.82 us     (122 m%)
    tran: time = 3.03 ms     (7.57 %), step = 47.71 us     (119 m%)
    tran: time = 5.043 ms    (12.6 %), step = 46.85 us     (117 m%)
    tran: time = 7.01 ms     (17.5 %), step = 49.42 us     (124 m%)
    tran: time = 9.023 ms    (22.6 %), step = 48.23 us     (121 m%)
    tran: time = 11.04 ms    (27.6 %), step = 47.24 us     (118 m%)
    tran: time = 13 ms       (32.5 %), step = 50 us        (125 m%)
    tran: time = 15.02 ms    (37.5 %), step = 48.78 us     (122 m%)
    tran: time = 17.03 ms    (42.6 %), step = 47.68 us     (119 m%)
    tran: time = 19.04 ms    (47.6 %), step = 46.82 us     (117 m%)
    tran: time = 21.01 ms    (52.5 %), step = 49.37 us     (123 m%)
    tran: time = 23.02 ms    (57.6 %), step = 48.19 us     (120 m%)
    tran: time = 25.04 ms    (62.6 %), step = 47.21 us     (118 m%)
    tran: time = 27 ms       (67.5 %), step = 50 us        (125 m%)
    tran: time = 29.02 ms    (72.5 %), step = 48.73 us     (122 m%)
    tran: time = 31.03 ms    (77.6 %), step = 47.64 us     (119 m%)
    tran: time = 33.04 ms    (82.6 %), step = 46.79 us     (117 m%)
    tran: time = 35.01 ms    (87.5 %), step = 49.32 us     (123 m%)
    tran: time = 37.02 ms    (92.6 %), step = 48.14 us     (120 m%)
    tran: time = 39.04 ms    (97.6 %), step = 47.17 us     (118 m%)
Number of accepted tran steps =             852

Maximum value achieved for any signal of each quantity: 
V: V(S<0>) = 3.3 V
I: I(V0:p) = 6.244 uA
Maximum value of each quantity, excluding Verilog-A modules or dangling current sources:
V: V(vout_filt) = 1.614 V
I: I(V0:p) = 6.244 uA

~~~~~~~~~~~~~~~~~~~~~~~~~~~~~~~~~
Post-Transient Simulation Summary
~~~~~~~~~~~~~~~~~~~~~~~~~~~~~~~~~
   -   To further speed up simulation, consider
          add ++aps on command line
   -   Non-default settings that could significantly slow down simulation
          errpreset = conservative, default moderate
          reltol = 10e-06, default 100e-06 (conservative)
~~~~~~~~~~~~~~~~~~~~~~~~~~~~~~~~~


During simulation, the CPU load for active processors is :
         0 (26.2 %)      1 (5.9 %)       2 (12.4 %)      3 (20.0 %)
         4 (11.7 %)      5 (17.9 %)      6 (76.7 %)      7 (8.5 %)
         8 (10.7 %)      9 (4.9 %)      10 (14.2 %)     11 (100.0 %)
        12 (4.0 %)      13 (83.7 %)     14 (2.2 %)      15 (4.9 %)
        16 (4.9 %)      18 (1.8 %)      19 (41.4 %)     20 (59.0 %)
        21 (92.1 %)     22 (4.9 %)      23 (97.8 %)     24 (71.1 %)
        25 (3.2 %)      26 (2.2 %)      27 (2.2 %)      28 (9.5 %)
        29 (9.3 %)      30 (1.8 %)      31 (19.3 %)     33 (5.3 %)
        34 (27.2 %)     35 (88.9 %)     36 (98.2 %)     37 (6.3 %)
        38 (1.8 %)      39 (10.2 %)     40 (2.2 %)      41 (4.9 %)
        42 (2.7 %)      43 (1.8 %)      44 (1.8 %)      45 (100.0 %)
        46 (4.9 %)      47 (1.8 %)      
        Total: 1183.9%
Initial condition solution time: CPU = 2.706 ms, elapsed = 2.707 ms.
Intrinsic tran analysis time:    CPU = 519.732 ms, elapsed = 521.213 ms.
Total time required for tran analysis `tran': CPU = 524.18 ms, elapsed = 526.318 ms, util. = 99.6%.
Time accumulated: CPU = 1.73575 s, elapsed = 2.32732 s.
Peak resident memory used = 213 Mbytes.


Notice from spectre during transient analysis `tran', during Monte Carlo analysis `mc1'.
    34 warnings suppressed.

finalTimeOP: writing operating point information to rawfile.

Opening the PSF file ../psf/mc1_separate/001/finalTimeOP.info ...
modelParameter: writing model parameter values to rawfile.

Opening the PSF file ../psf/mc1_separate/001/modelParameter.info ...
element: writing instance parameter values to rawfile.

Opening the PSF file ../psf/mc1_separate/001/element.info ...
outputParameter: writing output parameter values to rawfile.

Opening the PSF file ../psf/mc1_separate/001/outputParameter.info ...
designParamVals: writing netlist parameters to rawfile.

Opening the PSFASCII file ../psf/mc1_separate/001/designParamVals.info ...
primitives: writing primitives to rawfile.

Opening the PSFASCII file ../psf/mc1_separate/001/primitives.info.primitives ...
subckts: writing subcircuits to rawfile.

Opening the PSFASCII file ../psf/mc1_separate/001/subckts.info.subckts ...
2   2.04% 

*****************************************************************************************
* 
* INFO: AMS_processOption = C35B4C3
* 
* INFO: Valid Modules  PIP VG5 HIRES
* 
*****************************************************************************************


******************
DC Analysis `dcOp'
******************

Opening the PSF file ../psf/mc1_separate/002/dcOp.dc ...
Important parameter values:
    reltol = 100e-06
    abstol(V) = 1 uV
    abstol(I) = 1 pA
    temp = 85 C
    tnom = 27 C
    tempeffects = all
    gmindc = 1 pS
    rabsshort = 1 mOhm

Notice from spectre during DC analysis `dcOp', during Monte Carlo analysis `mc1'.
    Bad pivoting is found during DC analysis. Option dc_pivot_check=yes is recommended for possible improvement of convergence.


Maximum value achieved for any signal of each quantity: 
V: V(S<0>) = 3.3 V
I: I(V0:p) = 6.464 uA
Maximum value of each quantity, excluding Verilog-A modules or dangling current sources:
V: V(net1) = 1.6 V
I: I(V0:p) = 6.464 uA

Warning from spectre during check, during DC analysis `dcOp', during Monte Carlo analysis `mc1'.
    WARNING (CMI-2943): Parameter checks have been ignored because the valid value for parameter 'trise' could not be found in 'C1'.
    WARNING (CMI-2943): Parameter checks have been ignored because the valid value for parameter 'trise' could not be found in 'I0.R2.CM'.
    WARNING (CMI-2943): Parameter checks have been ignored because the valid value for parameter 'trise' could not be found in 'I0.R2.CS1'.
    WARNING (CMI-2943): Parameter checks have been ignored because the valid value for parameter 'trise' could not be found in 'I0.R2.CS0'.
    WARNING (CMI-2943): Parameter checks have been ignored because the valid value for parameter 'trise' could not be found in 'I0.C8<3>.C1'.
        Further occurrences of this warning will be suppressed.

Convergence achieved in 17 iterations.
DC simulation time: CPU = 5.642 ms, elapsed = 7.31301 ms.
Total time required for dc analysis `dcOp': CPU = 6.13 ms, elapsed = 7.80106 ms, util. = 78.6%.
Time accumulated: CPU = 1.77999 s, elapsed = 2.38446 s.
Peak resident memory used = 213 Mbytes.


Notice from spectre during Monte Carlo analysis `mc1'.
    34 warnings suppressed.

dcOpInfo: writing operating point information to rawfile.

Opening the PSF file ../psf/mc1_separate/002/dcOpInfo.info ...

************************************************
Transient Analysis `tran': time = (0 s -> 40 ms)
************************************************

Opening the PSF file ../psf/mc1_separate/002/tran.tran.tran ...

Notice from spectre during IC analysis, during transient analysis `tran', during Monte Carlo analysis `mc1'.
    Bad pivoting is found during DC analysis. Option dc_pivot_check=yes is recommended for possible improvement of convergence.
Warning from spectre during check, during IC analysis, during transient analysis `tran', during Monte Carlo analysis `mc1'.
    WARNING (CMI-2943): Parameter checks have been ignored because the valid value for parameter 'trise' could not be found in 'C1'.
    WARNING (CMI-2943): Parameter checks have been ignored because the valid value for parameter 'trise' could not be found in 'I0.R2.CM'.
    WARNING (CMI-2943): Parameter checks have been ignored because the valid value for parameter 'trise' could not be found in 'I0.R2.CS1'.
    WARNING (CMI-2943): Parameter checks have been ignored because the valid value for parameter 'trise' could not be found in 'I0.R2.CS0'.
    WARNING (CMI-2943): Parameter checks have been ignored because the valid value for parameter 'trise' could not be found in 'I0.C8<3>.C1'.
        Further occurrences of this warning will be suppressed.

Convergence achieved in 17 iterations.
DC simulation time: CPU = 2.721 ms, elapsed = 2.72083 ms.
Important parameter values:
    start = 0 s
    outputstart = 0 s
    stop = 40 ms
    step = 40 us
    maxstep = 400 us
    ic = all
    useprevic = no
    skipdc = no
    reltol = 10e-06
    abstol(V) = 1 uV
    abstol(I) = 1 pA
    temp = 85 C
    tnom = 27 C
    tempeffects = all
    errpreset = conservative
    method = gear2only
    lteratio = 10
    relref = alllocal
    cmin = 0 F
    gmin = 1 pS
    rabsshort = 1 mOhm


Notice from spectre during transient analysis `tran', during Monte Carlo analysis `mc1'.
    Multithreading is disabled due to the size of the design being too small.


Output and IC/nodeset summary:
                 save   8       (current)
                 save   87      (voltage)

    tran: time = 1.015 ms    (2.54 %), step = 48.96 us     (122 m%)
    tran: time = 3.028 ms    (7.57 %), step = 47.83 us     (120 m%)
    tran: time = 5.042 ms    (12.6 %), step = 46.94 us     (117 m%)
    tran: time = 7.008 ms    (17.5 %), step = 49.57 us     (124 m%)
    tran: time = 9.022 ms    (22.6 %), step = 48.35 us     (121 m%)
    tran: time = 11.04 ms    (27.6 %), step = 47.34 us     (118 m%)
    tran: time = 13 ms       (32.5 %), step = 50 us        (125 m%)
    tran: time = 15.02 ms    (37.5 %), step = 48.91 us     (122 m%)
    tran: time = 17.03 ms    (42.6 %), step = 47.78 us     (119 m%)
    tran: time = 19.04 ms    (47.6 %), step = 46.9 us      (117 m%)
    tran: time = 21.01 ms    (52.5 %), step = 49.51 us     (124 m%)
    tran: time = 23.02 ms    (57.6 %), step = 48.3 us      (121 m%)
    tran: time = 25.04 ms    (62.6 %), step = 47.3 us      (118 m%)
    tran: time = 27 ms       (67.5 %), step = 50 us        (125 m%)
    tran: time = 29.02 ms    (72.5 %), step = 48.86 us     (122 m%)
    tran: time = 31.03 ms    (77.6 %), step = 47.74 us     (119 m%)
    tran: time = 33.04 ms    (82.6 %), step = 46.87 us     (117 m%)
    tran: time = 35.01 ms    (87.5 %), step = 49.46 us     (124 m%)
    tran: time = 37.02 ms    (92.6 %), step = 48.25 us     (121 m%)
    tran: time = 39.04 ms    (97.6 %), step = 47.26 us     (118 m%)
Number of accepted tran steps =             852

Maximum value achieved for any signal of each quantity: 
V: V(S<0>) = 3.3 V
I: I(V0:p) = 6.465 uA
Maximum value of each quantity, excluding Verilog-A modules or dangling current sources:
V: V(vout_filt) = 1.614 V
I: I(V0:p) = 6.465 uA

~~~~~~~~~~~~~~~~~~~~~~~~~~~~~~~~~
Post-Transient Simulation Summary
~~~~~~~~~~~~~~~~~~~~~~~~~~~~~~~~~
   -   To further speed up simulation, consider
          add ++aps on command line
   -   Non-default settings that could significantly slow down simulation
          errpreset = conservative, default moderate
          reltol = 10e-06, default 100e-06 (conservative)
~~~~~~~~~~~~~~~~~~~~~~~~~~~~~~~~~


During simulation, the CPU load for active processors is :
         0 (21.6 %)      1 (5.4 %)       2 (13.2 %)      3 (20.8 %)
         4 (12.9 %)      5 (16.3 %)      6 (80.8 %)      7 (7.5 %)
         8 (8.8 %)       9 (4.9 %)      10 (12.4 %)     11 (100.0 %)
        12 (4.5 %)      13 (87.1 %)     14 (1.8 %)      15 (20.1 %)
        16 (7.5 %)      17 (1.1 %)      18 (1.8 %)      19 (33.8 %)
        20 (47.0 %)     21 (73.3 %)     22 (3.9 %)      23 (98.2 %)
        24 (59.8 %)     25 (20.0 %)     26 (1.8 %)      27 (1.8 %)
        28 (7.5 %)      29 (7.4 %)      30 (1.4 %)      31 (15.6 %)
        33 (4.2 %)      34 (21.6 %)     35 (91.2 %)     36 (98.6 %)
        37 (8.2 %)      38 (3.2 %)      39 (9.5 %)      40 (2.8 %)
        41 (3.9 %)      42 (5.3 %)      43 (2.9 %)      44 (1.8 %)
        45 (100.0 %)    46 (5.0 %)      47 (1.8 %)      
        Total: 1160.7%
Initial condition solution time: CPU = 2.754 ms, elapsed = 2.75612 ms.
Intrinsic tran analysis time:    CPU = 517.821 ms, elapsed = 519.308 ms.
Total time required for tran analysis `tran': CPU = 522.407 ms, elapsed = 524.473 ms, util. = 99.6%.
Time accumulated: CPU = 2.30953 s, elapsed = 2.91868 s.
Peak resident memory used = 214 Mbytes.


Notice from spectre during transient analysis `tran', during Monte Carlo analysis `mc1'.
    34 warnings suppressed.

finalTimeOP: writing operating point information to rawfile.

Opening the PSF file ../psf/mc1_separate/002/finalTimeOP.info ...
modelParameter: writing model parameter values to rawfile.

Opening the PSF file ../psf/mc1_separate/002/modelParameter.info ...
element: writing instance parameter values to rawfile.

Opening the PSF file ../psf/mc1_separate/002/element.info ...
outputParameter: writing output parameter values to rawfile.

Opening the PSF file ../psf/mc1_separate/002/outputParameter.info ...
designParamVals: writing netlist parameters to rawfile.

Opening the PSFASCII file ../psf/mc1_separate/002/designParamVals.info ...
primitives: writing primitives to rawfile.

Opening the PSFASCII file ../psf/mc1_separate/002/primitives.info.primitives ...
subckts: writing subcircuits to rawfile.

Opening the PSFASCII file ../psf/mc1_separate/002/subckts.info.subckts ...
3   4.08% 

*****************************************************************************************
* 
* INFO: AMS_processOption = C35B4C3
* 
* INFO: Valid Modules  PIP VG5 HIRES
* 
*****************************************************************************************


******************
DC Analysis `dcOp'
******************

Opening the PSF file ../psf/mc1_separate/003/dcOp.dc ...
Important parameter values:
    reltol = 100e-06
    abstol(V) = 1 uV
    abstol(I) = 1 pA
    temp = 85 C
    tnom = 27 C
    tempeffects = all
    gmindc = 1 pS
    rabsshort = 1 mOhm

Notice from spectre during DC analysis `dcOp', during Monte Carlo analysis `mc1'.
    Bad pivoting is found during DC analysis. Option dc_pivot_check=yes is recommended for possible improvement of convergence.


Maximum value achieved for any signal of each quantity: 
V: V(S<0>) = 3.3 V
I: I(V0:p) = 6.381 uA
Maximum value of each quantity, excluding Verilog-A modules or dangling current sources:
V: V(net1) = 1.6 V
I: I(V0:p) = 6.381 uA

Warning from spectre during check, during DC analysis `dcOp', during Monte Carlo analysis `mc1'.
    WARNING (CMI-2943): Parameter checks have been ignored because the valid value for parameter 'trise' could not be found in 'C1'.
    WARNING (CMI-2943): Parameter checks have been ignored because the valid value for parameter 'trise' could not be found in 'I0.R2.CM'.
    WARNING (CMI-2943): Parameter checks have been ignored because the valid value for parameter 'trise' could not be found in 'I0.R2.CS1'.
    WARNING (CMI-2943): Parameter checks have been ignored because the valid value for parameter 'trise' could not be found in 'I0.R2.CS0'.
    WARNING (CMI-2943): Parameter checks have been ignored because the valid value for parameter 'trise' could not be found in 'I0.C8<3>.C1'.
        Further occurrences of this warning will be suppressed.

Convergence achieved in 18 iterations.
DC simulation time: CPU = 5.968 ms, elapsed = 7.40004 ms.
Total time required for dc analysis `dcOp': CPU = 6.672 ms, elapsed = 8.10194 ms, util. = 82.4%.
Time accumulated: CPU = 2.35711 s, elapsed = 2.97932 s.
Peak resident memory used = 214 Mbytes.


Notice from spectre during Monte Carlo analysis `mc1'.
    34 warnings suppressed.

dcOpInfo: writing operating point information to rawfile.

Opening the PSF file ../psf/mc1_separate/003/dcOpInfo.info ...

************************************************
Transient Analysis `tran': time = (0 s -> 40 ms)
************************************************

Opening the PSF file ../psf/mc1_separate/003/tran.tran.tran ...

Notice from spectre during IC analysis, during transient analysis `tran', during Monte Carlo analysis `mc1'.
    Bad pivoting is found during DC analysis. Option dc_pivot_check=yes is recommended for possible improvement of convergence.
Warning from spectre during check, during IC analysis, during transient analysis `tran', during Monte Carlo analysis `mc1'.
    WARNING (CMI-2943): Parameter checks have been ignored because the valid value for parameter 'trise' could not be found in 'C1'.
    WARNING (CMI-2943): Parameter checks have been ignored because the valid value for parameter 'trise' could not be found in 'I0.R2.CM'.
    WARNING (CMI-2943): Parameter checks have been ignored because the valid value for parameter 'trise' could not be found in 'I0.R2.CS1'.
    WARNING (CMI-2943): Parameter checks have been ignored because the valid value for parameter 'trise' could not be found in 'I0.R2.CS0'.
    WARNING (CMI-2943): Parameter checks have been ignored because the valid value for parameter 'trise' could not be found in 'I0.C8<3>.C1'.
        Further occurrences of this warning will be suppressed.

Convergence achieved in 18 iterations.
DC simulation time: CPU = 2.922 ms, elapsed = 2.93803 ms.
Important parameter values:
    start = 0 s
    outputstart = 0 s
    stop = 40 ms
    step = 40 us
    maxstep = 400 us
    ic = all
    useprevic = no
    skipdc = no
    reltol = 10e-06
    abstol(V) = 1 uV
    abstol(I) = 1 pA
    temp = 85 C
    tnom = 27 C
    tempeffects = all
    errpreset = conservative
    method = gear2only
    lteratio = 10
    relref = alllocal
    cmin = 0 F
    gmin = 1 pS
    rabsshort = 1 mOhm


Notice from spectre during transient analysis `tran', during Monte Carlo analysis `mc1'.
    Multithreading is disabled due to the size of the design being too small.


Output and IC/nodeset summary:
                 save   8       (current)
                 save   87      (voltage)

    tran: time = 1.016 ms    (2.54 %), step = 48.79 us     (122 m%)
    tran: time = 3.03 ms     (7.57 %), step = 47.69 us     (119 m%)
    tran: time = 5.043 ms    (12.6 %), step = 46.83 us     (117 m%)
    tran: time = 7.01 ms     (17.5 %), step = 49.41 us     (124 m%)
    tran: time = 9.023 ms    (22.6 %), step = 48.22 us     (121 m%)
    tran: time = 11.04 ms    (27.6 %), step = 47.24 us     (118 m%)
    tran: time = 13 ms       (32.5 %), step = 50 us        (125 m%)
    tran: time = 15.02 ms    (37.5 %), step = 48.79 us     (122 m%)
    tran: time = 17.03 ms    (42.6 %), step = 47.69 us     (119 m%)
    tran: time = 19.04 ms    (47.6 %), step = 46.84 us     (117 m%)
    tran: time = 21.01 ms    (52.5 %), step = 49.41 us     (124 m%)
    tran: time = 23.02 ms    (57.6 %), step = 48.23 us     (121 m%)
    tran: time = 25.04 ms    (62.6 %), step = 47.25 us     (118 m%)
    tran: time = 27 ms       (67.5 %), step = 50 us        (125 m%)
    tran: time = 29.02 ms    (72.5 %), step = 48.8 us      (122 m%)
    tran: time = 31.03 ms    (77.6 %), step = 47.7 us      (119 m%)
    tran: time = 33.04 ms    (82.6 %), step = 46.84 us     (117 m%)
    tran: time = 35.01 ms    (87.5 %), step = 49.42 us     (124 m%)
    tran: time = 37.02 ms    (92.6 %), step = 48.23 us     (121 m%)
    tran: time = 39.04 ms    (97.6 %), step = 47.25 us     (118 m%)
Number of accepted tran steps =             852

Maximum value achieved for any signal of each quantity: 
V: V(S<0>) = 3.3 V
I: I(V0:p) = 6.381 uA
Maximum value of each quantity, excluding Verilog-A modules or dangling current sources:
V: V(vout_filt) = 1.614 V
I: I(V0:p) = 6.381 uA

~~~~~~~~~~~~~~~~~~~~~~~~~~~~~~~~~
Post-Transient Simulation Summary
~~~~~~~~~~~~~~~~~~~~~~~~~~~~~~~~~
   -   To further speed up simulation, consider
          add ++aps on command line
   -   Non-default settings that could significantly slow down simulation
          errpreset = conservative, default moderate
          reltol = 10e-06, default 100e-06 (conservative)
~~~~~~~~~~~~~~~~~~~~~~~~~~~~~~~~~


During simulation, the CPU load for active processors is :
         0 (18.5 %)      1 (5.1 %)       2 (27.6 %)      3 (17.9 %)
         4 (28.2 %)      5 (17.6 %)      6 (82.9 %)      7 (10.3 %)
         8 (9.7 %)       9 (5.0 %)      10 (11.1 %)     11 (100.0 %)
        12 (9.5 %)      13 (72.8 %)     14 (4.1 %)      15 (33.5 %)
        16 (23.4 %)     17 (1.2 %)      18 (2.3 %)      19 (33.3 %)
        20 (39.5 %)     21 (60.9 %)     22 (3.5 %)      23 (89.9 %)
        24 (51.2 %)     25 (33.4 %)     26 (1.7 %)      27 (1.8 %)
        28 (7.0 %)      29 (6.2 %)      30 (1.8 %)      31 (13.5 %)
        33 (3.5 %)      34 (33.1 %)     35 (89.9 %)     36 (98.8 %)
        37 (8.8 %)      38 (3.2 %)      39 (8.7 %)      40 (2.6 %)
        41 (3.8 %)      42 (5.3 %)      43 (3.5 %)      44 (2.4 %)
        45 (100.0 %)    46 (4.1 %)      47 (3.3 %)      
        Total: 1196.4%
Initial condition solution time: CPU = 2.965 ms, elapsed = 2.98214 ms.
Intrinsic tran analysis time:    CPU = 520.968 ms, elapsed = 522.491 ms.
Total time required for tran analysis `tran': CPU = 525.904 ms, elapsed = 527.894 ms, util. = 99.6%.
Time accumulated: CPU = 2.89023 s, elapsed = 3.51674 s.
Peak resident memory used = 214 Mbytes.


Notice from spectre during transient analysis `tran', during Monte Carlo analysis `mc1'.
    34 warnings suppressed.

finalTimeOP: writing operating point information to rawfile.

Opening the PSF file ../psf/mc1_separate/003/finalTimeOP.info ...
modelParameter: writing model parameter values to rawfile.

Opening the PSF file ../psf/mc1_separate/003/modelParameter.info ...
element: writing instance parameter values to rawfile.

Opening the PSF file ../psf/mc1_separate/003/element.info ...
outputParameter: writing output parameter values to rawfile.

Opening the PSF file ../psf/mc1_separate/003/outputParameter.info ...
designParamVals: writing netlist parameters to rawfile.

Opening the PSFASCII file ../psf/mc1_separate/003/designParamVals.info ...
primitives: writing primitives to rawfile.

Opening the PSFASCII file ../psf/mc1_separate/003/primitives.info.primitives ...
subckts: writing subcircuits to rawfile.

Opening the PSFASCII file ../psf/mc1_separate/003/subckts.info.subckts ...
    mc1: iteration = 3           (4.08 %), step = 1            (2.04 %)
4   6.12% 

*****************************************************************************************
* 
* INFO: AMS_processOption = C35B4C3
* 
* INFO: Valid Modules  PIP VG5 HIRES
* 
*****************************************************************************************


******************
DC Analysis `dcOp'
******************

Opening the PSF file ../psf/mc1_separate/004/dcOp.dc ...
Important parameter values:
    reltol = 100e-06
    abstol(V) = 1 uV
    abstol(I) = 1 pA
    temp = 85 C
    tnom = 27 C
    tempeffects = all
    gmindc = 1 pS
    rabsshort = 1 mOhm

Notice from spectre during DC analysis `dcOp', during Monte Carlo analysis `mc1'.
    Bad pivoting is found during DC analysis. Option dc_pivot_check=yes is recommended for possible improvement of convergence.


Maximum value achieved for any signal of each quantity: 
V: V(S<0>) = 3.3 V
I: I(V0:p) = 6.498 uA
Maximum value of each quantity, excluding Verilog-A modules or dangling current sources:
V: V(net1) = 1.6 V
I: I(V0:p) = 6.498 uA

Warning from spectre during check, during DC analysis `dcOp', during Monte Carlo analysis `mc1'.
    WARNING (CMI-2943): Parameter checks have been ignored because the valid value for parameter 'trise' could not be found in 'C1'.
    WARNING (CMI-2943): Parameter checks have been ignored because the valid value for parameter 'trise' could not be found in 'I0.R2.CM'.
    WARNING (CMI-2943): Parameter checks have been ignored because the valid value for parameter 'trise' could not be found in 'I0.R2.CS1'.
    WARNING (CMI-2943): Parameter checks have been ignored because the valid value for parameter 'trise' could not be found in 'I0.R2.CS0'.
    WARNING (CMI-2943): Parameter checks have been ignored because the valid value for parameter 'trise' could not be found in 'I0.C8<3>.C1'.
        Further occurrences of this warning will be suppressed.

Convergence achieved in 16 iterations.
DC simulation time: CPU = 5.954 ms, elapsed = 7.16686 ms.
Total time required for dc analysis `dcOp': CPU = 6.589 ms, elapsed = 7.80201 ms, util. = 84.5%.
Time accumulated: CPU = 2.9364 s, elapsed = 3.57545 s.
Peak resident memory used = 214 Mbytes.


Notice from spectre during Monte Carlo analysis `mc1'.
    34 warnings suppressed.

dcOpInfo: writing operating point information to rawfile.

Opening the PSF file ../psf/mc1_separate/004/dcOpInfo.info ...

************************************************
Transient Analysis `tran': time = (0 s -> 40 ms)
************************************************

Opening the PSF file ../psf/mc1_separate/004/tran.tran.tran ...

Notice from spectre during IC analysis, during transient analysis `tran', during Monte Carlo analysis `mc1'.
    Bad pivoting is found during DC analysis. Option dc_pivot_check=yes is recommended for possible improvement of convergence.
Warning from spectre during check, during IC analysis, during transient analysis `tran', during Monte Carlo analysis `mc1'.
    WARNING (CMI-2943): Parameter checks have been ignored because the valid value for parameter 'trise' could not be found in 'C1'.
    WARNING (CMI-2943): Parameter checks have been ignored because the valid value for parameter 'trise' could not be found in 'I0.R2.CM'.
    WARNING (CMI-2943): Parameter checks have been ignored because the valid value for parameter 'trise' could not be found in 'I0.R2.CS1'.
    WARNING (CMI-2943): Parameter checks have been ignored because the valid value for parameter 'trise' could not be found in 'I0.R2.CS0'.
    WARNING (CMI-2943): Parameter checks have been ignored because the valid value for parameter 'trise' could not be found in 'I0.C8<3>.C1'.
        Further occurrences of this warning will be suppressed.

Convergence achieved in 16 iterations.
DC simulation time: CPU = 2.931 ms, elapsed = 2.93207 ms.
Important parameter values:
    start = 0 s
    outputstart = 0 s
    stop = 40 ms
    step = 40 us
    maxstep = 400 us
    ic = all
    useprevic = no
    skipdc = no
    reltol = 10e-06
    abstol(V) = 1 uV
    abstol(I) = 1 pA
    temp = 85 C
    tnom = 27 C
    tempeffects = all
    errpreset = conservative
    method = gear2only
    lteratio = 10
    relref = alllocal
    cmin = 0 F
    gmin = 1 pS
    rabsshort = 1 mOhm


Notice from spectre during transient analysis `tran', during Monte Carlo analysis `mc1'.
    Multithreading is disabled due to the size of the design being too small.


Output and IC/nodeset summary:
                 save   8       (current)
                 save   87      (voltage)

    tran: time = 1.014 ms    (2.53 %), step = 49.02 us     (123 m%)
    tran: time = 3.027 ms    (7.57 %), step = 47.91 us     (120 m%)
    tran: time = 5.04 ms     (12.6 %), step = 47.02 us     (118 m%)
    tran: time = 7.006 ms    (17.5 %), step = 49.76 us     (124 m%)
    tran: time = 9.019 ms    (22.5 %), step = 48.53 us     (121 m%)
    tran: time = 11.03 ms    (27.6 %), step = 47.5 us      (119 m%)
    tran: time = 13.05 ms    (32.6 %), step = 46.7 us      (117 m%)
    tran: time = 15.01 ms    (37.5 %), step = 49.21 us     (123 m%)
    tran: time = 17.02 ms    (42.6 %), step = 48.07 us     (120 m%)
    tran: time = 19.04 ms    (47.6 %), step = 47.14 us     (118 m%)
    tran: time = 21 ms       (52.5 %), step = 49.97 us     (125 m%)
    tran: time = 23.02 ms    (57.5 %), step = 48.7 us      (122 m%)
    tran: time = 25.03 ms    (62.6 %), step = 47.63 us     (119 m%)
    tran: time = 27.04 ms    (67.6 %), step = 46.8 us      (117 m%)
    tran: time = 29.01 ms    (72.5 %), step = 49.38 us     (123 m%)
    tran: time = 31.02 ms    (77.6 %), step = 48.22 us     (121 m%)
    tran: time = 33.04 ms    (82.6 %), step = 47.25 us     (118 m%)
    tran: time = 35 ms       (87.5 %), step = 50 us        (125 m%)
    tran: time = 37.02 ms    (92.5 %), step = 48.86 us     (122 m%)
    tran: time = 39.03 ms    (97.6 %), step = 47.76 us     (119 m%)
Number of accepted tran steps =             852

Maximum value achieved for any signal of each quantity: 
V: V(S<0>) = 3.3 V
I: I(V0:p) = 6.498 uA
Maximum value of each quantity, excluding Verilog-A modules or dangling current sources:
V: V(vout_filt) = 1.612 V
I: I(V0:p) = 6.498 uA

~~~~~~~~~~~~~~~~~~~~~~~~~~~~~~~~~
Post-Transient Simulation Summary
~~~~~~~~~~~~~~~~~~~~~~~~~~~~~~~~~
   -   To further speed up simulation, consider
          add ++aps on command line
   -   Non-default settings that could significantly slow down simulation
          errpreset = conservative, default moderate
          reltol = 10e-06, default 100e-06 (conservative)
~~~~~~~~~~~~~~~~~~~~~~~~~~~~~~~~~


During simulation, the CPU load for active processors is :
         0 (16.5 %)      1 (5.3 %)       2 (24.3 %)      3 (16.8 %)
         4 (38.8 %)      5 (18.5 %)      6 (72.7 %)      7 (11.8 %)
         8 (21.4 %)      9 (12.0 %)     10 (10.7 %)     11 (100.0 %)
        12 (9.4 %)      13 (62.5 %)     14 (18.1 %)     15 (39.3 %)
        16 (30.4 %)     17 (6.0 %)      18 (3.0 %)      19 (28.6 %)
        20 (33.8 %)     21 (52.1 %)     22 (3.2 %)      23 (91.1 %)
        24 (44.3 %)     25 (42.8 %)     26 (5.7 %)      27 (2.3 %)
        28 (14.8 %)     29 (5.5 %)      30 (1.5 %)      31 (11.5 %)
        33 (3.2 %)      34 (42.5 %)     35 (83.0 %)     36 (99.0 %)
        37 (9.5 %)      38 (3.8 %)      39 (8.4 %)      40 (2.8 %)
        41 (3.5 %)      42 (5.0 %)      43 (3.5 %)      44 (2.5 %)
        45 (100.0 %)    46 (3.8 %)      47 (8.1 %)      
        Total: 1234.4%
Initial condition solution time: CPU = 2.977 ms, elapsed = 2.97904 ms.
Intrinsic tran analysis time:    CPU = 514.428 ms, elapsed = 516.066 ms.
Total time required for tran analysis `tran': CPU = 519.833 ms, elapsed = 522.194 ms, util. = 99.5%.
Time accumulated: CPU = 3.46378 s, elapsed = 4.10796 s.
Peak resident memory used = 214 Mbytes.


Notice from spectre during transient analysis `tran', during Monte Carlo analysis `mc1'.
    34 warnings suppressed.

finalTimeOP: writing operating point information to rawfile.

Opening the PSF file ../psf/mc1_separate/004/finalTimeOP.info ...
modelParameter: writing model parameter values to rawfile.

Opening the PSF file ../psf/mc1_separate/004/modelParameter.info ...
element: writing instance parameter values to rawfile.

Opening the PSF file ../psf/mc1_separate/004/element.info ...
outputParameter: writing output parameter values to rawfile.

Opening the PSF file ../psf/mc1_separate/004/outputParameter.info ...
designParamVals: writing netlist parameters to rawfile.

Opening the PSFASCII file ../psf/mc1_separate/004/designParamVals.info ...
primitives: writing primitives to rawfile.

Opening the PSFASCII file ../psf/mc1_separate/004/primitives.info.primitives ...
subckts: writing subcircuits to rawfile.

Opening the PSFASCII file ../psf/mc1_separate/004/subckts.info.subckts ...
    mc1: iteration = 4           (6.12 %), step = 1            (2.04 %)
5   8.16% 

*****************************************************************************************
* 
* INFO: AMS_processOption = C35B4C3
* 
* INFO: Valid Modules  PIP VG5 HIRES
* 
*****************************************************************************************


******************
DC Analysis `dcOp'
******************

Opening the PSF file ../psf/mc1_separate/005/dcOp.dc ...
Important parameter values:
    reltol = 100e-06
    abstol(V) = 1 uV
    abstol(I) = 1 pA
    temp = 85 C
    tnom = 27 C
    tempeffects = all
    gmindc = 1 pS
    rabsshort = 1 mOhm

Notice from spectre during DC analysis `dcOp', during Monte Carlo analysis `mc1'.
    Bad pivoting is found during DC analysis. Option dc_pivot_check=yes is recommended for possible improvement of convergence.


Maximum value achieved for any signal of each quantity: 
V: V(S<0>) = 3.3 V
I: I(V0:p) = 6.428 uA
Maximum value of each quantity, excluding Verilog-A modules or dangling current sources:
V: V(vout_filt) = 1.6 V
I: I(V0:p) = 6.428 uA

Warning from spectre during check, during DC analysis `dcOp', during Monte Carlo analysis `mc1'.
    WARNING (CMI-2943): Parameter checks have been ignored because the valid value for parameter 'trise' could not be found in 'C1'.
    WARNING (CMI-2943): Parameter checks have been ignored because the valid value for parameter 'trise' could not be found in 'I0.R2.CM'.
    WARNING (CMI-2943): Parameter checks have been ignored because the valid value for parameter 'trise' could not be found in 'I0.R2.CS1'.
    WARNING (CMI-2943): Parameter checks have been ignored because the valid value for parameter 'trise' could not be found in 'I0.R2.CS0'.
    WARNING (CMI-2943): Parameter checks have been ignored because the valid value for parameter 'trise' could not be found in 'I0.C8<3>.C1'.
        Further occurrences of this warning will be suppressed.

Convergence achieved in 17 iterations.
DC simulation time: CPU = 6.34 ms, elapsed = 7.62987 ms.
Total time required for dc analysis `dcOp': CPU = 6.928 ms, elapsed = 8.21614 ms, util. = 84.3%.
Time accumulated: CPU = 3.51462 s, elapsed = 4.17126 s.
Peak resident memory used = 214 Mbytes.


Notice from spectre during Monte Carlo analysis `mc1'.
    34 warnings suppressed.

dcOpInfo: writing operating point information to rawfile.

Opening the PSF file ../psf/mc1_separate/005/dcOpInfo.info ...

************************************************
Transient Analysis `tran': time = (0 s -> 40 ms)
************************************************

Opening the PSF file ../psf/mc1_separate/005/tran.tran.tran ...

Notice from spectre during IC analysis, during transient analysis `tran', during Monte Carlo analysis `mc1'.
    Bad pivoting is found during DC analysis. Option dc_pivot_check=yes is recommended for possible improvement of convergence.
Warning from spectre during check, during IC analysis, during transient analysis `tran', during Monte Carlo analysis `mc1'.
    WARNING (CMI-2943): Parameter checks have been ignored because the valid value for parameter 'trise' could not be found in 'C1'.
    WARNING (CMI-2943): Parameter checks have been ignored because the valid value for parameter 'trise' could not be found in 'I0.R2.CM'.
    WARNING (CMI-2943): Parameter checks have been ignored because the valid value for parameter 'trise' could not be found in 'I0.R2.CS1'.
    WARNING (CMI-2943): Parameter checks have been ignored because the valid value for parameter 'trise' could not be found in 'I0.R2.CS0'.
    WARNING (CMI-2943): Parameter checks have been ignored because the valid value for parameter 'trise' could not be found in 'I0.C8<3>.C1'.
        Further occurrences of this warning will be suppressed.

Convergence achieved in 17 iterations.
DC simulation time: CPU = 2.626 ms, elapsed = 2.62594 ms.
Important parameter values:
    start = 0 s
    outputstart = 0 s
    stop = 40 ms
    step = 40 us
    maxstep = 400 us
    ic = all
    useprevic = no
    skipdc = no
    reltol = 10e-06
    abstol(V) = 1 uV
    abstol(I) = 1 pA
    temp = 85 C
    tnom = 27 C
    tempeffects = all
    errpreset = conservative
    method = gear2only
    lteratio = 10
    relref = alllocal
    cmin = 0 F
    gmin = 1 pS
    rabsshort = 1 mOhm


Notice from spectre during transient analysis `tran', during Monte Carlo analysis `mc1'.
    Multithreading is disabled due to the size of the design being too small.


Output and IC/nodeset summary:
                 save   8       (current)
                 save   87      (voltage)

    tran: time = 1.017 ms    (2.54 %), step = 48.79 us     (122 m%)
    tran: time = 3.03 ms     (7.58 %), step = 47.68 us     (119 m%)
    tran: time = 5.044 ms    (12.6 %), step = 46.82 us     (117 m%)
    tran: time = 7.011 ms    (17.5 %), step = 49.37 us     (123 m%)
    tran: time = 9.024 ms    (22.6 %), step = 48.17 us     (120 m%)
    tran: time = 11.04 ms    (27.6 %), step = 47.19 us     (118 m%)
    tran: time = 13 ms       (32.5 %), step = 50 us        (125 m%)
    tran: time = 15.02 ms    (37.5 %), step = 48.7 us      (122 m%)
    tran: time = 17.03 ms    (42.6 %), step = 47.61 us     (119 m%)
    tran: time = 19.04 ms    (47.6 %), step = 46.76 us     (117 m%)
    tran: time = 21.01 ms    (52.5 %), step = 49.27 us     (123 m%)
    tran: time = 23.02 ms    (57.6 %), step = 48.09 us     (120 m%)
    tran: time = 25.04 ms    (62.6 %), step = 47.13 us     (118 m%)
    tran: time = 27.01 ms    (67.5 %), step = 49.91 us     (125 m%)
    tran: time = 29.02 ms    (72.5 %), step = 48.62 us     (122 m%)
    tran: time = 31.03 ms    (77.6 %), step = 47.54 us     (119 m%)
    tran: time = 33.05 ms    (82.6 %), step = 46.71 us     (117 m%)
    tran: time = 35.01 ms    (87.5 %), step = 49.18 us     (123 m%)
    tran: time = 37.03 ms    (92.6 %), step = 48.02 us     (120 m%)
    tran: time = 39.04 ms    (97.6 %), step = 47.08 us     (118 m%)
Number of accepted tran steps =             852

Maximum value achieved for any signal of each quantity: 
V: V(S<0>) = 3.3 V
I: I(V0:p) = 6.429 uA
Maximum value of each quantity, excluding Verilog-A modules or dangling current sources:
V: V(vout_filt) = 1.614 V
I: I(V0:p) = 6.429 uA

~~~~~~~~~~~~~~~~~~~~~~~~~~~~~~~~~
Post-Transient Simulation Summary
~~~~~~~~~~~~~~~~~~~~~~~~~~~~~~~~~
   -   To further speed up simulation, consider
          add ++aps on command line
   -   Non-default settings that could significantly slow down simulation
          errpreset = conservative, default moderate
          reltol = 10e-06, default 100e-06 (conservative)
~~~~~~~~~~~~~~~~~~~~~~~~~~~~~~~~~


During simulation, the CPU load for active processors is :
         0 (16.7 %)      1 (5.3 %)       2 (23.2 %)      3 (15.9 %)
         4 (46.3 %)      5 (20.9 %)      6 (64.1 %)      7 (12.7 %)
         8 (31.2 %)      9 (13.0 %)     10 (10.0 %)     11 (100.0 %)
        12 (14.2 %)     13 (54.9 %)     14 (23.6 %)     15 (34.5 %)
        16 (26.6 %)     17 (12.0 %)     18 (2.8 %)      19 (29.7 %)
        20 (29.7 %)     21 (45.9 %)     22 (3.7 %)      23 (92.2 %)
        24 (38.9 %)     25 (49.8 %)     26 (17.7 %)     27 (2.0 %)
        28 (25.1 %)     29 (5.0 %)      30 (1.7 %)      31 (10.3 %)
        33 (3.3 %)      34 (49.3 %)     35 (72.8 %)     36 (99.1 %)
        37 (9.2 %)      38 (4.0 %)      39 (7.6 %)      40 (2.6 %)
        41 (3.1 %)      42 (4.8 %)      43 (3.7 %)      44 (2.4 %)
        45 (100.0 %)    46 (3.7 %)      47 (18.3 %)     
        Total: 1264.6%
Initial condition solution time: CPU = 2.659 ms, elapsed = 2.66099 ms.
Intrinsic tran analysis time:    CPU = 513.425 ms, elapsed = 515.654 ms.
Total time required for tran analysis `tran': CPU = 518.012 ms, elapsed = 520.958 ms, util. = 99.4%.
Time accumulated: CPU = 4.03984 s, elapsed = 4.70185 s.
Peak resident memory used = 214 Mbytes.


Notice from spectre during transient analysis `tran', during Monte Carlo analysis `mc1'.
    34 warnings suppressed.

finalTimeOP: writing operating point information to rawfile.

Opening the PSF file ../psf/mc1_separate/005/finalTimeOP.info ...
modelParameter: writing model parameter values to rawfile.

Opening the PSF file ../psf/mc1_separate/005/modelParameter.info ...
element: writing instance parameter values to rawfile.

Opening the PSF file ../psf/mc1_separate/005/element.info ...
outputParameter: writing output parameter values to rawfile.

Opening the PSF file ../psf/mc1_separate/005/outputParameter.info ...
designParamVals: writing netlist parameters to rawfile.

Opening the PSFASCII file ../psf/mc1_separate/005/designParamVals.info ...
primitives: writing primitives to rawfile.

Opening the PSFASCII file ../psf/mc1_separate/005/primitives.info.primitives ...
subckts: writing subcircuits to rawfile.

Opening the PSFASCII file ../psf/mc1_separate/005/subckts.info.subckts ...
    mc1: iteration = 5           (8.16 %), step = 1            (2.04 %)
6  10.20% 

*****************************************************************************************
* 
* INFO: AMS_processOption = C35B4C3
* 
* INFO: Valid Modules  PIP VG5 HIRES
* 
*****************************************************************************************


******************
DC Analysis `dcOp'
******************

Opening the PSF file ../psf/mc1_separate/006/dcOp.dc ...
Important parameter values:
    reltol = 100e-06
    abstol(V) = 1 uV
    abstol(I) = 1 pA
    temp = 85 C
    tnom = 27 C
    tempeffects = all
    gmindc = 1 pS
    rabsshort = 1 mOhm

Notice from spectre during DC analysis `dcOp', during Monte Carlo analysis `mc1'.
    Bad pivoting is found during DC analysis. Option dc_pivot_check=yes is recommended for possible improvement of convergence.


Maximum value achieved for any signal of each quantity: 
V: V(S<0>) = 3.3 V
I: I(V0:p) = 6.447 uA
Maximum value of each quantity, excluding Verilog-A modules or dangling current sources:
V: V(net1) = 1.6 V
I: I(V0:p) = 6.447 uA

Warning from spectre during check, during DC analysis `dcOp', during Monte Carlo analysis `mc1'.
    WARNING (CMI-2943): Parameter checks have been ignored because the valid value for parameter 'trise' could not be found in 'C1'.
    WARNING (CMI-2943): Parameter checks have been ignored because the valid value for parameter 'trise' could not be found in 'I0.R2.CM'.
    WARNING (CMI-2943): Parameter checks have been ignored because the valid value for parameter 'trise' could not be found in 'I0.R2.CS1'.
    WARNING (CMI-2943): Parameter checks have been ignored because the valid value for parameter 'trise' could not be found in 'I0.R2.CS0'.
    WARNING (CMI-2943): Parameter checks have been ignored because the valid value for parameter 'trise' could not be found in 'I0.C8<3>.C1'.
        Further occurrences of this warning will be suppressed.

Convergence achieved in 17 iterations.
DC simulation time: CPU = 5.446 ms, elapsed = 7.09605 ms.
Total time required for dc analysis `dcOp': CPU = 5.971 ms, elapsed = 7.62701 ms, util. = 78.3%.
Time accumulated: CPU = 4.08383 s, elapsed = 4.76047 s.
Peak resident memory used = 214 Mbytes.


Notice from spectre during Monte Carlo analysis `mc1'.
    34 warnings suppressed.

dcOpInfo: writing operating point information to rawfile.

Opening the PSF file ../psf/mc1_separate/006/dcOpInfo.info ...

************************************************
Transient Analysis `tran': time = (0 s -> 40 ms)
************************************************

Opening the PSF file ../psf/mc1_separate/006/tran.tran.tran ...

Notice from spectre during IC analysis, during transient analysis `tran', during Monte Carlo analysis `mc1'.
    Bad pivoting is found during DC analysis. Option dc_pivot_check=yes is recommended for possible improvement of convergence.
Warning from spectre during check, during IC analysis, during transient analysis `tran', during Monte Carlo analysis `mc1'.
    WARNING (CMI-2943): Parameter checks have been ignored because the valid value for parameter 'trise' could not be found in 'C1'.
    WARNING (CMI-2943): Parameter checks have been ignored because the valid value for parameter 'trise' could not be found in 'I0.R2.CM'.
    WARNING (CMI-2943): Parameter checks have been ignored because the valid value for parameter 'trise' could not be found in 'I0.R2.CS1'.
    WARNING (CMI-2943): Parameter checks have been ignored because the valid value for parameter 'trise' could not be found in 'I0.R2.CS0'.
    WARNING (CMI-2943): Parameter checks have been ignored because the valid value for parameter 'trise' could not be found in 'I0.C8<3>.C1'.
        Further occurrences of this warning will be suppressed.

Convergence achieved in 17 iterations.
DC simulation time: CPU = 2.666 ms, elapsed = 2.67887 ms.
Important parameter values:
    start = 0 s
    outputstart = 0 s
    stop = 40 ms
    step = 40 us
    maxstep = 400 us
    ic = all
    useprevic = no
    skipdc = no
    reltol = 10e-06
    abstol(V) = 1 uV
    abstol(I) = 1 pA
    temp = 85 C
    tnom = 27 C
    tempeffects = all
    errpreset = conservative
    method = gear2only
    lteratio = 10
    relref = alllocal
    cmin = 0 F
    gmin = 1 pS
    rabsshort = 1 mOhm


Notice from spectre during transient analysis `tran', during Monte Carlo analysis `mc1'.
    Multithreading is disabled due to the size of the design being too small.


Output and IC/nodeset summary:
                 save   8       (current)
                 save   87      (voltage)

    tran: time = 1.017 ms    (2.54 %), step = 48.76 us     (122 m%)
    tran: time = 3.03 ms     (7.58 %), step = 47.68 us     (119 m%)
    tran: time = 5.043 ms    (12.6 %), step = 46.83 us     (117 m%)
    tran: time = 7.01 ms     (17.5 %), step = 49.42 us     (124 m%)
    tran: time = 9.023 ms    (22.6 %), step = 48.24 us     (121 m%)
    tran: time = 11.04 ms    (27.6 %), step = 47.26 us     (118 m%)
    tran: time = 13 ms       (32.5 %), step = 50 us        (125 m%)
    tran: time = 15.02 ms    (37.5 %), step = 48.84 us     (122 m%)
    tran: time = 17.03 ms    (42.6 %), step = 47.74 us     (119 m%)
    tran: time = 19.04 ms    (47.6 %), step = 46.88 us     (117 m%)
    tran: time = 21.01 ms    (52.5 %), step = 49.51 us     (124 m%)
    tran: time = 23.02 ms    (57.6 %), step = 48.31 us     (121 m%)
    tran: time = 25.04 ms    (62.6 %), step = 47.32 us     (118 m%)
    tran: time = 27 ms       (67.5 %), step = 50 us        (125 m%)
    tran: time = 29.01 ms    (72.5 %), step = 48.92 us     (122 m%)
    tran: time = 31.03 ms    (77.6 %), step = 47.81 us     (120 m%)
    tran: time = 33.04 ms    (82.6 %), step = 46.93 us     (117 m%)
    tran: time = 35.01 ms    (87.5 %), step = 49.59 us     (124 m%)
    tran: time = 37.02 ms    (92.6 %), step = 48.38 us     (121 m%)
    tran: time = 39.03 ms    (97.6 %), step = 47.38 us     (118 m%)
Number of accepted tran steps =             852

Maximum value achieved for any signal of each quantity: 
V: V(S<0>) = 3.3 V
I: I(V0:p) = 6.447 uA
Maximum value of each quantity, excluding Verilog-A modules or dangling current sources:
V: V(vout_filt) = 1.612 V
I: I(V0:p) = 6.447 uA

~~~~~~~~~~~~~~~~~~~~~~~~~~~~~~~~~
Post-Transient Simulation Summary
~~~~~~~~~~~~~~~~~~~~~~~~~~~~~~~~~
   -   To further speed up simulation, consider
          add ++aps on command line
   -   Non-default settings that could significantly slow down simulation
          errpreset = conservative, default moderate
          reltol = 10e-06, default 100e-06 (conservative)
~~~~~~~~~~~~~~~~~~~~~~~~~~~~~~~~~


During simulation, the CPU load for active processors is :
         0 (17.2 %)      1 (5.3 %)       2 (20.6 %)      3 (14.7 %)
         4 (52.5 %)      5 (18.9 %)      6 (59.7 %)      7 (18.4 %)
         8 (38.6 %)      9 (13.7 %)     10 (9.3 %)      11 (100.0 %)
        12 (17.2 %)     13 (55.0 %)     14 (22.0 %)     15 (31.0 %)
        16 (23.8 %)     17 (11.5 %)     18 (2.9 %)      19 (37.5 %)
        20 (26.7 %)     21 (41.6 %)     22 (3.7 %)      23 (93.1 %)
        24 (34.8 %)     25 (55.3 %)     26 (27.1 %)     27 (2.1 %)
        28 (33.5 %)     29 (4.6 %)      30 (1.7 %)      31 (9.5 %)
        32 (1.2 %)      33 (3.1 %)      34 (54.4 %)     35 (64.9 %)
        36 (98.7 %)     37 (11.0 %)     38 (3.5 %)      39 (7.3 %)
        40 (2.9 %)      41 (3.1 %)      42 (4.5 %)      43 (3.9 %)
        44 (2.7 %)      45 (100.0 %)    46 (3.3 %)      47 (16.7 %)
        Total: 1284.8%
Initial condition solution time: CPU = 2.699 ms, elapsed = 2.71416 ms.
Intrinsic tran analysis time:    CPU = 512.433 ms, elapsed = 514.064 ms.
Total time required for tran analysis `tran': CPU = 516.885 ms, elapsed = 519.126 ms, util. = 99.6%.
Time accumulated: CPU = 4.60759 s, elapsed = 5.28902 s.
Peak resident memory used = 214 Mbytes.


Notice from spectre during transient analysis `tran', during Monte Carlo analysis `mc1'.
    34 warnings suppressed.

finalTimeOP: writing operating point information to rawfile.

Opening the PSF file ../psf/mc1_separate/006/finalTimeOP.info ...
modelParameter: writing model parameter values to rawfile.

Opening the PSF file ../psf/mc1_separate/006/modelParameter.info ...
element: writing instance parameter values to rawfile.

Opening the PSF file ../psf/mc1_separate/006/element.info ...
outputParameter: writing output parameter values to rawfile.

Opening the PSF file ../psf/mc1_separate/006/outputParameter.info ...
designParamVals: writing netlist parameters to rawfile.

Opening the PSFASCII file ../psf/mc1_separate/006/designParamVals.info ...
primitives: writing primitives to rawfile.

Opening the PSFASCII file ../psf/mc1_separate/006/primitives.info.primitives ...
subckts: writing subcircuits to rawfile.

Opening the PSFASCII file ../psf/mc1_separate/006/subckts.info.subckts ...
    mc1: iteration = 6           (10.2 %), step = 1            (2.04 %)
7  12.24% 

*****************************************************************************************
* 
* INFO: AMS_processOption = C35B4C3
* 
* INFO: Valid Modules  PIP VG5 HIRES
* 
*****************************************************************************************


******************
DC Analysis `dcOp'
******************

Opening the PSF file ../psf/mc1_separate/007/dcOp.dc ...
Important parameter values:
    reltol = 100e-06
    abstol(V) = 1 uV
    abstol(I) = 1 pA
    temp = 85 C
    tnom = 27 C
    tempeffects = all
    gmindc = 1 pS
    rabsshort = 1 mOhm

Notice from spectre during DC analysis `dcOp', during Monte Carlo analysis `mc1'.
    Bad pivoting is found during DC analysis. Option dc_pivot_check=yes is recommended for possible improvement of convergence.


Maximum value achieved for any signal of each quantity: 
V: V(S<0>) = 3.3 V
I: I(V0:p) = 6.598 uA
Maximum value of each quantity, excluding Verilog-A modules or dangling current sources:
V: V(vout_filt) = 1.601 V
I: I(V0:p) = 6.598 uA

Warning from spectre during check, during DC analysis `dcOp', during Monte Carlo analysis `mc1'.
    WARNING (CMI-2943): Parameter checks have been ignored because the valid value for parameter 'trise' could not be found in 'C1'.
    WARNING (CMI-2943): Parameter checks have been ignored because the valid value for parameter 'trise' could not be found in 'I0.R2.CM'.
    WARNING (CMI-2943): Parameter checks have been ignored because the valid value for parameter 'trise' could not be found in 'I0.R2.CS1'.
    WARNING (CMI-2943): Parameter checks have been ignored because the valid value for parameter 'trise' could not be found in 'I0.R2.CS0'.
    WARNING (CMI-2943): Parameter checks have been ignored because the valid value for parameter 'trise' could not be found in 'I0.C8<3>.C1'.
        Further occurrences of this warning will be suppressed.

Convergence achieved in 17 iterations.
DC simulation time: CPU = 5.764 ms, elapsed = 7.00998 ms.
Total time required for dc analysis `dcOp': CPU = 6.336 ms, elapsed = 7.58004 ms, util. = 83.6%.
Time accumulated: CPU = 4.65211 s, elapsed = 5.34768 s.
Peak resident memory used = 214 Mbytes.


Notice from spectre during Monte Carlo analysis `mc1'.
    34 warnings suppressed.

dcOpInfo: writing operating point information to rawfile.

Opening the PSF file ../psf/mc1_separate/007/dcOpInfo.info ...

************************************************
Transient Analysis `tran': time = (0 s -> 40 ms)
************************************************

Opening the PSF file ../psf/mc1_separate/007/tran.tran.tran ...

Notice from spectre during IC analysis, during transient analysis `tran', during Monte Carlo analysis `mc1'.
    Bad pivoting is found during DC analysis. Option dc_pivot_check=yes is recommended for possible improvement of convergence.
Warning from spectre during check, during IC analysis, during transient analysis `tran', during Monte Carlo analysis `mc1'.
    WARNING (CMI-2943): Parameter checks have been ignored because the valid value for parameter 'trise' could not be found in 'C1'.
    WARNING (CMI-2943): Parameter checks have been ignored because the valid value for parameter 'trise' could not be found in 'I0.R2.CM'.
    WARNING (CMI-2943): Parameter checks have been ignored because the valid value for parameter 'trise' could not be found in 'I0.R2.CS1'.
    WARNING (CMI-2943): Parameter checks have been ignored because the valid value for parameter 'trise' could not be found in 'I0.R2.CS0'.
    WARNING (CMI-2943): Parameter checks have been ignored because the valid value for parameter 'trise' could not be found in 'I0.C8<3>.C1'.
        Further occurrences of this warning will be suppressed.

Convergence achieved in 17 iterations.
DC simulation time: CPU = 2.895 ms, elapsed = 2.89607 ms.
Important parameter values:
    start = 0 s
    outputstart = 0 s
    stop = 40 ms
    step = 40 us
    maxstep = 400 us
    ic = all
    useprevic = no
    skipdc = no
    reltol = 10e-06
    abstol(V) = 1 uV
    abstol(I) = 1 pA
    temp = 85 C
    tnom = 27 C
    tempeffects = all
    errpreset = conservative
    method = gear2only
    lteratio = 10
    relref = alllocal
    cmin = 0 F
    gmin = 1 pS
    rabsshort = 1 mOhm


Notice from spectre during transient analysis `tran', during Monte Carlo analysis `mc1'.
    Multithreading is disabled due to the size of the design being too small.


Output and IC/nodeset summary:
                 save   8       (current)
                 save   87      (voltage)

    tran: time = 1.017 ms    (2.54 %), step = 48.74 us     (122 m%)
    tran: time = 3.031 ms    (7.58 %), step = 47.63 us     (119 m%)
    tran: time = 5.044 ms    (12.6 %), step = 46.78 us     (117 m%)
    tran: time = 7.011 ms    (17.5 %), step = 49.28 us     (123 m%)
    tran: time = 9.025 ms    (22.6 %), step = 48.09 us     (120 m%)
    tran: time = 11.04 ms    (27.6 %), step = 47.13 us     (118 m%)
    tran: time = 13.01 ms    (32.5 %), step = 49.89 us     (125 m%)
    tran: time = 15.02 ms    (37.5 %), step = 48.59 us     (121 m%)
    tran: time = 17.03 ms    (42.6 %), step = 47.52 us     (119 m%)
    tran: time = 19.05 ms    (47.6 %), step = 46.69 us     (117 m%)
    tran: time = 21.01 ms    (52.5 %), step = 49.13 us     (123 m%)
    tran: time = 23.03 ms    (57.6 %), step = 47.97 us     (120 m%)
    tran: time = 25.04 ms    (62.6 %), step = 47.04 us     (118 m%)
    tran: time = 27.01 ms    (67.5 %), step = 49.73 us     (124 m%)
    tran: time = 29.02 ms    (72.6 %), step = 48.46 us     (121 m%)
    tran: time = 31.03 ms    (77.6 %), step = 47.42 us     (119 m%)
    tran: time = 33 ms       (82.5 %), step = 50 us        (125 m%)
    tran: time = 35.01 ms    (87.5 %), step = 48.99 us     (122 m%)
    tran: time = 37.03 ms    (92.6 %), step = 47.84 us     (120 m%)
    tran: time = 39.04 ms    (97.6 %), step = 46.94 us     (117 m%)
Number of accepted tran steps =             851

Maximum value achieved for any signal of each quantity: 
V: V(S<0>) = 3.3 V
I: I(V0:p) = 6.598 uA
[...]
        Total: 1295.0%
Initial condition solution time: CPU = 2.554 ms, elapsed = 2.55489 ms.
Intrinsic tran analysis time:    CPU = 513.644 ms, elapsed = 515.536 ms.
Total time required for tran analysis `tran': CPU = 518.072 ms, elapsed = 520.561 ms, util. = 99.5%.
Time accumulated: CPU = 28.5765 s, elapsed = 29.986 s.
Peak resident memory used = 215 Mbytes.


Notice from spectre during transient analysis `tran', during Monte Carlo analysis `mc1'.
    34 warnings suppressed.

finalTimeOP: writing operating point information to rawfile.

Opening the PSF file ../psf/mc1_separate/048/finalTimeOP.info ...
modelParameter: writing model parameter values to rawfile.

Opening the PSF file ../psf/mc1_separate/048/modelParameter.info ...
element: writing instance parameter values to rawfile.

Opening the PSF file ../psf/mc1_separate/048/element.info ...
outputParameter: writing output parameter values to rawfile.

Opening the PSF file ../psf/mc1_separate/048/outputParameter.info ...
designParamVals: writing netlist parameters to rawfile.

Opening the PSFASCII file ../psf/mc1_separate/048/designParamVals.info ...
primitives: writing primitives to rawfile.

Opening the PSFASCII file ../psf/mc1_separate/048/primitives.info.primitives ...
subckts: writing subcircuits to rawfile.

Opening the PSFASCII file ../psf/mc1_separate/048/subckts.info.subckts ...
    mc1: iteration = 48          (95.9 %), step = 1            (2.04 %)
49  97.96% 

*****************************************************************************************
* 
* INFO: AMS_processOption = C35B4C3
* 
* INFO: Valid Modules  PIP VG5 HIRES
* 
*****************************************************************************************


******************
DC Analysis `dcOp'
******************

Opening the PSF file ../psf/mc1_separate/049/dcOp.dc ...
Important parameter values:
    reltol = 100e-06
    abstol(V) = 1 uV
    abstol(I) = 1 pA
    temp = 85 C
    tnom = 27 C
    tempeffects = all
    gmindc = 1 pS
    rabsshort = 1 mOhm

Notice from spectre during DC analysis `dcOp', during Monte Carlo analysis `mc1'.
    Bad pivoting is found during DC analysis. Option dc_pivot_check=yes is recommended for possible improvement of convergence.


Maximum value achieved for any signal of each quantity: 
V: V(S<0>) = 3.3 V
I: I(V0:p) = 6.481 uA
Maximum value of each quantity, excluding Verilog-A modules or dangling current sources:
V: V(net1) = 1.6 V
I: I(V0:p) = 6.481 uA

Warning from spectre during check, during DC analysis `dcOp', during Monte Carlo analysis `mc1'.
    WARNING (CMI-2943): Parameter checks have been ignored because the valid value for parameter 'trise' could not be found in 'C1'.
    WARNING (CMI-2943): Parameter checks have been ignored because the valid value for parameter 'trise' could not be found in 'I0.R2.CM'.
    WARNING (CMI-2943): Parameter checks have been ignored because the valid value for parameter 'trise' could not be found in 'I0.R2.CS1'.
    WARNING (CMI-2943): Parameter checks have been ignored because the valid value for parameter 'trise' could not be found in 'I0.R2.CS0'.
    WARNING (CMI-2943): Parameter checks have been ignored because the valid value for parameter 'trise' could not be found in 'I0.C8<3>.C1'.
        Further occurrences of this warning will be suppressed.

Convergence achieved in 17 iterations.
DC simulation time: CPU = 5.383 ms, elapsed = 6.73819 ms.
Total time required for dc analysis `dcOp': CPU = 5.865 ms, elapsed = 7.22003 ms, util. = 81.2%.
Time accumulated: CPU = 28.6208 s, elapsed = 30.042 s.
Peak resident memory used = 215 Mbytes.


Notice from spectre during Monte Carlo analysis `mc1'.
    34 warnings suppressed.

dcOpInfo: writing operating point information to rawfile.

Opening the PSF file ../psf/mc1_separate/049/dcOpInfo.info ...

************************************************
Transient Analysis `tran': time = (0 s -> 40 ms)
************************************************

Opening the PSF file ../psf/mc1_separate/049/tran.tran.tran ...

Notice from spectre during IC analysis, during transient analysis `tran', during Monte Carlo analysis `mc1'.
    Bad pivoting is found during DC analysis. Option dc_pivot_check=yes is recommended for possible improvement of convergence.
Warning from spectre during check, during IC analysis, during transient analysis `tran', during Monte Carlo analysis `mc1'.
    WARNING (CMI-2943): Parameter checks have been ignored because the valid value for parameter 'trise' could not be found in 'C1'.
    WARNING (CMI-2943): Parameter checks have been ignored because the valid value for parameter 'trise' could not be found in 'I0.R2.CM'.
    WARNING (CMI-2943): Parameter checks have been ignored because the valid value for parameter 'trise' could not be found in 'I0.R2.CS1'.
    WARNING (CMI-2943): Parameter checks have been ignored because the valid value for parameter 'trise' could not be found in 'I0.R2.CS0'.
    WARNING (CMI-2943): Parameter checks have been ignored because the valid value for parameter 'trise' could not be found in 'I0.C8<3>.C1'.
        Further occurrences of this warning will be suppressed.

Convergence achieved in 17 iterations.
DC simulation time: CPU = 2.575 ms, elapsed = 2.57587 ms.
Important parameter values:
    start = 0 s
    outputstart = 0 s
    stop = 40 ms
    step = 40 us
    maxstep = 400 us
    ic = all
    useprevic = no
    skipdc = no
    reltol = 10e-06
    abstol(V) = 1 uV
    abstol(I) = 1 pA
    temp = 85 C
    tnom = 27 C
    tempeffects = all
    errpreset = conservative
    method = gear2only
    lteratio = 10
    relref = alllocal
    cmin = 0 F
    gmin = 1 pS
    rabsshort = 1 mOhm


Notice from spectre during transient analysis `tran', during Monte Carlo analysis `mc1'.
    Multithreading is disabled due to the size of the design being too small.


Output and IC/nodeset summary:
                 save   8       (current)
                 save   87      (voltage)

    tran: time = 1.017 ms    (2.54 %), step = 48.76 us     (122 m%)
    tran: time = 3.03 ms     (7.58 %), step = 47.66 us     (119 m%)
    tran: time = 5.044 ms    (12.6 %), step = 46.81 us     (117 m%)
    tran: time = 7.01 ms     (17.5 %), step = 49.36 us     (123 m%)
    tran: time = 9.024 ms    (22.6 %), step = 48.17 us     (120 m%)
    tran: time = 11.04 ms    (27.6 %), step = 47.2 us      (118 m%)
    tran: time = 13 ms       (32.5 %), step = 50 us        (125 m%)
    tran: time = 15.02 ms    (37.5 %), step = 48.72 us     (122 m%)
    tran: time = 17.03 ms    (42.6 %), step = 47.63 us     (119 m%)
    tran: time = 19.04 ms    (47.6 %), step = 46.78 us     (117 m%)
    tran: time = 21.01 ms    (52.5 %), step = 49.31 us     (123 m%)
    tran: time = 23.02 ms    (57.6 %), step = 48.13 us     (120 m%)
    tran: time = 25.04 ms    (62.6 %), step = 47.17 us     (118 m%)
    tran: time = 27 ms       (67.5 %), step = 49.97 us     (125 m%)
    tran: time = 29.02 ms    (72.5 %), step = 48.68 us     (122 m%)
    tran: time = 31.03 ms    (77.6 %), step = 47.59 us     (119 m%)
    tran: time = 33.04 ms    (82.6 %), step = 46.76 us     (117 m%)
    tran: time = 35.01 ms    (87.5 %), step = 49.27 us     (123 m%)
    tran: time = 37.02 ms    (92.6 %), step = 48.09 us     (120 m%)
    tran: time = 39.04 ms    (97.6 %), step = 47.14 us     (118 m%)
Number of accepted tran steps =             852

Maximum value achieved for any signal of each quantity: 
V: V(S<0>) = 3.3 V
I: I(V0:p) = 6.482 uA
Maximum value of each quantity, excluding Verilog-A modules or dangling current sources:
V: V(vout_filt) = 1.614 V
I: I(V0:p) = 6.482 uA

~~~~~~~~~~~~~~~~~~~~~~~~~~~~~~~~~
Post-Transient Simulation Summary
~~~~~~~~~~~~~~~~~~~~~~~~~~~~~~~~~
   -   To further speed up simulation, consider
          add ++aps on command line
   -   Non-default settings that could significantly slow down simulation
          errpreset = conservative, default moderate
          reltol = 10e-06, default 100e-06 (conservative)
~~~~~~~~~~~~~~~~~~~~~~~~~~~~~~~~~


During simulation, the CPU load for active processors is :
         0 (18.2 %)      1 (15.4 %)      2 (20.5 %)      3 (36.6 %)
         4 (49.4 %)      5 (31.6 %)      6 (34.7 %)      7 (17.6 %)
         8 (39.6 %)      9 (62.3 %)     10 (10.2 %)     11 (34.3 %)
        12 (28.3 %)     13 (32.0 %)     14 (57.9 %)     15 (16.0 %)
        16 (10.9 %)     17 (9.2 %)      18 (9.9 %)      19 (45.9 %)
        20 (30.8 %)     21 (31.9 %)     22 (23.5 %)     23 (48.2 %)
        24 (33.6 %)     25 (28.2 %)     26 (30.8 %)     27 (14.8 %)
        28 (24.8 %)     29 (18.1 %)     30 (17.6 %)     31 (30.7 %)
        32 (14.7 %)     33 (21.1 %)     34 (44.0 %)     35 (19.9 %)
        36 (53.7 %)     37 (15.0 %)     38 (6.6 %)      39 (17.5 %)
        40 (5.5 %)      41 (9.9 %)      42 (18.0 %)     43 (13.2 %)
        44 (18.3 %)     45 (100.0 %)    46 (10.6 %)     47 (12.6 %)
        Total: 1294.1%
Initial condition solution time: CPU = 2.608 ms, elapsed = 2.60997 ms.
Intrinsic tran analysis time:    CPU = 507.333 ms, elapsed = 508.825 ms.
Total time required for tran analysis `tran': CPU = 511.792 ms, elapsed = 513.894 ms, util. = 99.6%.
Time accumulated: CPU = 29.1397 s, elapsed = 30.5656 s.
Peak resident memory used = 215 Mbytes.


Notice from spectre during transient analysis `tran', during Monte Carlo analysis `mc1'.
    34 warnings suppressed.

finalTimeOP: writing operating point information to rawfile.

Opening the PSF file ../psf/mc1_separate/049/finalTimeOP.info ...
modelParameter: writing model parameter values to rawfile.

Opening the PSF file ../psf/mc1_separate/049/modelParameter.info ...
element: writing instance parameter values to rawfile.

Opening the PSF file ../psf/mc1_separate/049/element.info ...
outputParameter: writing output parameter values to rawfile.

Opening the PSF file ../psf/mc1_separate/049/outputParameter.info ...
designParamVals: writing netlist parameters to rawfile.

Opening the PSFASCII file ../psf/mc1_separate/049/designParamVals.info ...
primitives: writing primitives to rawfile.

Opening the PSFASCII file ../psf/mc1_separate/049/primitives.info.primitives ...
subckts: writing subcircuits to rawfile.

Opening the PSFASCII file ../psf/mc1_separate/049/subckts.info.subckts ...
    mc1: iteration = 49            (98 %), step = 1            (2.04 %)
50 100.00% 

*****************************************************************************************
* 
* INFO: AMS_processOption = C35B4C3
* 
* INFO: Valid Modules  PIP VG5 HIRES
* 
*****************************************************************************************


******************
DC Analysis `dcOp'
******************

Opening the PSF file ../psf/mc1_separate/050/dcOp.dc ...
Important parameter values:
    reltol = 100e-06
    abstol(V) = 1 uV
    abstol(I) = 1 pA
    temp = 85 C
    tnom = 27 C
    tempeffects = all
    gmindc = 1 pS
    rabsshort = 1 mOhm

Notice from spectre during DC analysis `dcOp', during Monte Carlo analysis `mc1'.
    Bad pivoting is found during DC analysis. Option dc_pivot_check=yes is recommended for possible improvement of convergence.


Maximum value achieved for any signal of each quantity: 
V: V(S<0>) = 3.3 V
I: I(V0:p) = 6.425 uA
Maximum value of each quantity, excluding Verilog-A modules or dangling current sources:
V: V(vout_filt) = 1.6 V
I: I(V0:p) = 6.425 uA

Warning from spectre during check, during DC analysis `dcOp', during Monte Carlo analysis `mc1'.
    WARNING (CMI-2943): Parameter checks have been ignored because the valid value for parameter 'trise' could not be found in 'C1'.
    WARNING (CMI-2943): Parameter checks have been ignored because the valid value for parameter 'trise' could not be found in 'I0.R2.CM'.
    WARNING (CMI-2943): Parameter checks have been ignored because the valid value for parameter 'trise' could not be found in 'I0.R2.CS1'.
    WARNING (CMI-2943): Parameter checks have been ignored because the valid value for parameter 'trise' could not be found in 'I0.R2.CS0'.
    WARNING (CMI-2943): Parameter checks have been ignored because the valid value for parameter 'trise' could not be found in 'I0.C8<3>.C1'.
        Further occurrences of this warning will be suppressed.

Convergence achieved in 17 iterations.
DC simulation time: CPU = 5.957 ms, elapsed = 7.46608 ms.
Total time required for dc analysis `dcOp': CPU = 6.48 ms, elapsed = 7.98798 ms, util. = 81.1%.
Time accumulated: CPU = 29.1849 s, elapsed = 30.6239 s.
Peak resident memory used = 215 Mbytes.


Notice from spectre during Monte Carlo analysis `mc1'.
    34 warnings suppressed.

dcOpInfo: writing operating point information to rawfile.

Opening the PSF file ../psf/mc1_separate/050/dcOpInfo.info ...

************************************************
Transient Analysis `tran': time = (0 s -> 40 ms)
************************************************

Opening the PSF file ../psf/mc1_separate/050/tran.tran.tran ...

Notice from spectre during IC analysis, during transient analysis `tran', during Monte Carlo analysis `mc1'.
    Bad pivoting is found during DC analysis. Option dc_pivot_check=yes is recommended for possible improvement of convergence.
Warning from spectre during check, during IC analysis, during transient analysis `tran', during Monte Carlo analysis `mc1'.
    WARNING (CMI-2943): Parameter checks have been ignored because the valid value for parameter 'trise' could not be found in 'C1'.
    WARNING (CMI-2943): Parameter checks have been ignored because the valid value for parameter 'trise' could not be found in 'I0.R2.CM'.
    WARNING (CMI-2943): Parameter checks have been ignored because the valid value for parameter 'trise' could not be found in 'I0.R2.CS1'.
    WARNING (CMI-2943): Parameter checks have been ignored because the valid value for parameter 'trise' could not be found in 'I0.R2.CS0'.
    WARNING (CMI-2943): Parameter checks have been ignored because the valid value for parameter 'trise' could not be found in 'I0.C8<3>.C1'.
        Further occurrences of this warning will be suppressed.

Convergence achieved in 17 iterations.
DC simulation time: CPU = 2.637 ms, elapsed = 2.63786 ms.
Important parameter values:
    start = 0 s
    outputstart = 0 s
    stop = 40 ms
    step = 40 us
    maxstep = 400 us
    ic = all
    useprevic = no
    skipdc = no
    reltol = 10e-06
    abstol(V) = 1 uV
    abstol(I) = 1 pA
    temp = 85 C
    tnom = 27 C
    tempeffects = all
    errpreset = conservative
    method = gear2only
    lteratio = 10
    relref = alllocal
    cmin = 0 F
    gmin = 1 pS
    rabsshort = 1 mOhm


Notice from spectre during transient analysis `tran', during Monte Carlo analysis `mc1'.
    Multithreading is disabled due to the size of the design being too small.


Output and IC/nodeset summary:
                 save   8       (current)
                 save   87      (voltage)

    tran: time = 1.016 ms    (2.54 %), step = 48.84 us     (122 m%)
    tran: time = 3.03 ms     (7.57 %), step = 47.72 us     (119 m%)
    tran: time = 5.043 ms    (12.6 %), step = 46.85 us     (117 m%)
    tran: time = 7.01 ms     (17.5 %), step = 49.4 us      (123 m%)
    tran: time = 9.023 ms    (22.6 %), step = 48.2 us      (120 m%)
    tran: time = 11.04 ms    (27.6 %), step = 47.21 us     (118 m%)
    tran: time = 13 ms       (32.5 %), step = 50 us        (125 m%)
    tran: time = 15.02 ms    (37.5 %), step = 48.71 us     (122 m%)
    tran: time = 17.03 ms    (42.6 %), step = 47.61 us     (119 m%)
    tran: time = 19.04 ms    (47.6 %), step = 46.76 us     (117 m%)
    tran: time = 21.01 ms    (52.5 %), step = 49.25 us     (123 m%)
    tran: time = 23.02 ms    (57.6 %), step = 48.07 us     (120 m%)
    tran: time = 25.04 ms    (62.6 %), step = 47.12 us     (118 m%)
    tran: time = 27.01 ms    (67.5 %), step = 49.87 us     (125 m%)
    tran: time = 29.02 ms    (72.5 %), step = 48.58 us     (121 m%)
    tran: time = 31.03 ms    (77.6 %), step = 47.51 us     (119 m%)
    tran: time = 33.05 ms    (82.6 %), step = 46.68 us     (117 m%)
    tran: time = 35.01 ms    (87.5 %), step = 49.13 us     (123 m%)
    tran: time = 37.03 ms    (92.6 %), step = 47.97 us     (120 m%)
    tran: time = 39.04 ms    (97.6 %), step = 47.04 us     (118 m%)
Number of accepted tran steps =             852

Maximum value achieved for any signal of each quantity: 
V: V(S<0>) = 3.3 V
I: I(V0:p) = 6.426 uA
Maximum value of each quantity, excluding Verilog-A modules or dangling current sources:
V: V(vout_filt) = 1.614 V
I: I(V0:p) = 6.426 uA

~~~~~~~~~~~~~~~~~~~~~~~~~~~~~~~~~
Post-Transient Simulation Summary
~~~~~~~~~~~~~~~~~~~~~~~~~~~~~~~~~
   -   To further speed up simulation, consider
          add ++aps on command line
   -   Non-default settings that could significantly slow down simulation
          errpreset = conservative, default moderate
          reltol = 10e-06, default 100e-06 (conservative)
~~~~~~~~~~~~~~~~~~~~~~~~~~~~~~~~~


During simulation, the CPU load for active processors is :
         0 (18.0 %)      1 (15.1 %)      2 (22.0 %)      3 (36.4 %)
         4 (48.5 %)      5 (31.0 %)      6 (34.3 %)      7 (17.3 %)
         8 (40.8 %)      9 (61.2 %)     10 (11.9 %)     11 (33.7 %)
        12 (29.6 %)     13 (31.5 %)     14 (56.9 %)     15 (15.9 %)
        16 (10.7 %)     17 (9.1 %)      18 (9.8 %)      19 (45.1 %)
        20 (31.9 %)     21 (31.3 %)     22 (23.1 %)     23 (49.1 %)
        24 (33.0 %)     25 (28.5 %)     26 (30.2 %)     27 (14.9 %)
        28 (24.4 %)     29 (17.8 %)     30 (17.6 %)     31 (30.2 %)
        32 (16.3 %)     33 (20.9 %)     34 (43.4 %)     35 (19.6 %)
        36 (54.2 %)     37 (14.7 %)     38 (6.5 %)      39 (17.4 %)
        40 (7.2 %)      41 (9.8 %)      42 (17.7 %)     43 (13.1 %)
        44 (17.9 %)     45 (100.0 %)    46 (10.4 %)     47 (12.4 %)
        Total: 1292.8%
Initial condition solution time: CPU = 2.669 ms, elapsed = 2.671 ms.
Intrinsic tran analysis time:    CPU = 507.248 ms, elapsed = 509.045 ms.
Total time required for tran analysis `tran': CPU = 511.806 ms, elapsed = 514.16 ms, util. = 99.5%.
Time accumulated: CPU = 29.7037 s, elapsed = 31.1477 s.
Peak resident memory used = 215 Mbytes.


Notice from spectre during transient analysis `tran', during Monte Carlo analysis `mc1'.
    34 warnings suppressed.

finalTimeOP: writing operating point information to rawfile.

Opening the PSF file ../psf/mc1_separate/050/finalTimeOP.info ...
modelParameter: writing model parameter values to rawfile.

Opening the PSF file ../psf/mc1_separate/050/modelParameter.info ...
element: writing instance parameter values to rawfile.

Opening the PSF file ../psf/mc1_separate/050/element.info ...
outputParameter: writing output parameter values to rawfile.

Opening the PSF file ../psf/mc1_separate/050/outputParameter.info ...
designParamVals: writing netlist parameters to rawfile.

Opening the PSFASCII file ../psf/mc1_separate/050/designParamVals.info ...
primitives: writing primitives to rawfile.

Opening the PSFASCII file ../psf/mc1_separate/050/primitives.info.primitives ...
subckts: writing subcircuits to rawfile.

Opening the PSFASCII file ../psf/mc1_separate/050/subckts.info.subckts ...
    mc1: iteration = 50           (100 %), step = 1            (2.04 %)
Total time required for montecarlo analysis `mc1': CPU = 29.2567 s, elapsed = 30.1569 s, util. = 97%.
Time accumulated: CPU = 29.7325 s, elapsed = 31.1906 s.
Peak resident memory used = 215 Mbytes.

Licensing Information:
Lic Summary:
[09:14:05.260474] Cdslmd servers:3000@lic08.ug.kth.se:29000@lic06.ug.kth.se
[09:14:05.784818] Feature usage summary:
[09:14:05.784819] Virtuoso_Multi_mode_Simulation


Aggregate audit (9:14:05 AM, Thur Apr 16, 2026):
Time used: CPU = 29.7 s, elapsed = 31.2 s, util. = 95.3%.
Time spent in licensing: elapsed = 47.3 ms.
Peak memory used = 215 Mbytes.
Simulation started at: 9:13:34 AM, Thur Apr 16, 2026, ended at: 9:14:05 AM, Thur Apr 16, 2026, with elapsed time (wall clock): 31.2 s.
spectre completes with 0 errors, 527 warnings, and 262 notices.
