
Spectre (R) Circuit Simulator
Version 24.1.0.288.isr5 64bit -- 3 Apr 2025
Copyright (C) 1989-2025 Cadence Design Systems, Inc. All rights reserved worldwide. Cadence and Spectre are registered trademarks of Cadence Design Systems, Inc. All others are the property of their respective holders.

Includes RSA BSAFE(R) Cryptographic or Security Protocol Software from RSA Security, Inc.

User: davidevi   Host: il2244vt26_davidevi   HostID: 11AC2C00   PID: 1038026
Memory  available: 3.0375 TB  physical: 3.2467 TB
Linux   : Rocky Linux release 8.10 (Green Obsidian)
CPU Type: Intel(R) Xeon(R) CPU E7-8857 v2 @ 3.00GHz
        Socket: Processors [Frequency]
        0:       0 [3600.0],  1 [3600.0],  2 [1200.0],  3 [1200.0],  4 [2999.9]
                 5 [1200.0],  6 [3300.0],  7 [2999.9],  8 [1200.0],  9 [1200.0]
                10 [2500.0], 11 [2500.0]
        1:      12 [1200.0], 13 [3100.0], 14 [3600.0], 15 [2999.9], 16 [3600.0]
                17 [3600.0], 18 [3300.0], 19 [1200.0], 20 [3000.0], 21 [2800.0]
                22 [1200.0], 23 [3500.0]
        2:      24 [3600.0], 25 [3600.0], 26 [3600.0], 27 [1200.0], 28 [1200.0]
                29 [1200.0], 30 [3300.0], 31 [2765.8], 32 [2753.8], 33 [1200.0]
                34 [2999.9], 35 [1200.0]
        3:      36 [3600.0], 37 [2999.9], 38 [3400.0], 39 [3600.0], 40 [2500.0]
                41 [2500.0], 42 [2600.0], 43 [1200.0], 44 [1200.0], 45 [2500.0]
                46 [2999.9], 47 [1200.0]
        
System load averages (1min, 5min, 15min) : 13.9 %, 17.1 %, 16.2 %
HPC is enabled


Simulating `input.scs' on il2244vt26_davidevi at 8:27:58 AM, Thur Apr 16, 2026 (process id: 1038026).
Current working directory: /home/davidevi/Desktop/myproject/Sim/VGA/VGA_1_tb/adexl/results/data/MonteCarlo.2/27/xf_MC/groupRunDataDir/netlist
Command line:
    /opt/tools/cadence/installs/SPECTRE241/tools/bin/spectre -64  \
        input.scs +escchars +log ../psf/spectre.out -format psfbin  \
        +rtsf -raw ../psf +aps +mt +lqtimeout 900 -maxw 5 -maxn 5  \
        +param /opt/pdk/ams/410/spectre/ams_range.lmts -env ade  \
        -ahdllibdir  \
        /home/davidevi/Desktop/myproject/Sim/VGA/VGA_1_tb/adexl/results/data/MonteCarlo.2/sharedData/Job465/ahdl/input.ahdlSimDB  \
        +logstatus  \
        +adespetkn=0001089D13A302B663E41FB550AF0DF415A679A322D5069144BF588C12F604E07EF416DC01A319B562BB63D35BF91DB045A354DB0CBA10A17CF350E179C04F9272E279D15D9175FF34986BDD0AF002BA50FD7FD707E002A700AC1C8412FB4CE60EA979D120F874D3349879D118F874D3349810318574E95F5D7800003662

Simulation Id: icp0eaHkdrZyoJFz
Licensing Information:
[08:27:58.121842] Configured Lic search path (24.01-s002): 3000@lic08.ug.kth.se:29000@lic06.ug.kth.se

Licensing Information:
[08:27:58.045347] Periodic Lic check successful

Loading /opt/tools/cadence/installs/SPECTRE241/tools.lnx86/cmi/lib/64bit/5.0/libinfineon_sh.so ...
Loading /opt/tools/cadence/installs/SPECTRE241/tools.lnx86/cmi/lib/64bit/5.0/libphilips_I_sh.so ...
Loading /opt/tools/cadence/installs/SPECTRE241/tools.lnx86/cmi/lib/64bit/5.0/libphilips_sh.so ...
Loading /opt/tools/cadence/installs/SPECTRE241/tools.lnx86/cmi/lib/64bit/5.0/libsparam_sh.so ...
Loading /opt/tools/cadence/installs/SPECTRE241/tools.lnx86/cmi/lib/64bit/5.0/libstmodels_sh.so ...

Warning from spectre.
    WARNING (SPECTRE-691): This CPU processor does not support x86 advanced vector extensions instructions. This may affect math operations and slow down the simulation.

Reading file:  /home/davidevi/Desktop/myproject/Sim/VGA/VGA_1_tb/adexl/results/data/MonteCarlo.2/27/xf_MC/groupRunDataDir/netlist/input.scs
Reading file:  /opt/pdk/ams/410/spectre/ams_range.lmts

Warning from spectre during read of parameter soft limits file `/opt/pdk/ams/410/spectre/ams_range.lmts', during circuit read-in.
    WARNING (SPECTRE-8360): line 1511: `ac' is an undefined primitive device.
    WARNING (SPECTRE-8360): line 1512: `ac' is an undefined primitive device.
    WARNING (SPECTRE-8360): line 1513: `ac' is an undefined primitive device.
    WARNING (SPECTRE-8360): line 1514: `ac' is an undefined primitive device.
    WARNING (SPECTRE-8360): line 1515: `ac' is an undefined primitive device.
        Further occurrences of this warning will be suppressed.

Reading file:  /opt/tools/cadence/installs/SPECTRE241/tools.lnx86/spectre/etc/configs/spectre.cfg
Reading file:  /opt/pdk/ams/410/spectre/c35/soac/soac.scs
Reading file:  /opt/pdk/ams/410/spectre/c35/processOption.scs
Reading file:  /opt/pdk/ams/410/spectre/c35/process.scs
Reading file:  /opt/pdk/ams/410/spectre/c35/processOption/C35B4C3.scs
Reading file:  /opt/pdk/ams/410/spectre/c35/cmos53.scs
Reading file:  /opt/pdk/ams/410/spectre/c35/res.scs
Reading file:  /opt/pdk/ams/410/spectre/c35/cap.scs
Reading file:  /opt/pdk/ams/410/spectre/c35/bip.scs
Reading file:  /opt/pdk/ams/410/spectre/c35/ind.scs
Reading file:  /opt/pdk/ams/410/spectre/c35/esddiode.scs
Time for NDB Parsing: CPU = 194.749 ms, elapsed = 336.82 ms.
Time accumulated: CPU = 412.636 ms, elapsed = 336.826 ms.
Peak resident memory used = 167 Mbytes.

Reading link:  /opt/tools/cadence/installs/SPECTRE241/tools.lnx86/spectre/etc/ahdl/discipline.h
Reading file:  /opt/tools/cadence/installs/SPECTRE241/tools.lnx86/spectre/etc/ahdl/disciplines.vams
Reading link:  /opt/tools/cadence/installs/SPECTRE241/tools.lnx86/spectre/etc/ahdl/constants.h
Reading file:  /opt/tools/cadence/installs/SPECTRE241/tools.lnx86/spectre/etc/ahdl/constants.vams

Warning from spectre during AHDL read-in.
    WARNING (VACOMP-2435): The environment variable CDS_AHDLCMI_ENABLE is no longer supported. Therefore, the simulator will use the default compiled C code flow.

Existing shared object for module bsource_fcab9d is up to date.
Installed compiled interface for bsource_fcab9d.
Time for Elaboration: CPU = 56.955 ms, elapsed = 60.086 ms.
Time accumulated: CPU = 469.776 ms, elapsed = 397.096 ms.
Peak resident memory used = 183 Mbytes.


Notice from spectre during hierarchy flattening.
    The value 'psf' specified for the 'checklimitdest' option will no longer be supported in future releases. Use 'spectre -h' to see other recommended values for the 'checklimitdest' option.


*****************************************************************************************
* 
* INFO: AMS_processOption = C35B4C3
* 
* INFO: Valid Modules  PIP VG5 HIRES
* 
*****************************************************************************************


Time for EDB Visiting: CPU = 6.711 ms, elapsed = 6.71196 ms.
Time accumulated: CPU = 476.72 ms, elapsed = 404.039 ms.
Peak resident memory used = 186 Mbytes.

Loading /opt/tools/cadence/installs/SPECTRE241/tools.lnx86/mdl/lib/64bit/libSpectreEH_sh.so ...

Warning from spectre during initial setup.
    WARNING (SPECTRE-17607): Assert `SOAC_rpolyh_vminuspsub' is ignored because it contains an expression which is invalid or not supported by native evaluator. 
    WARNING (SPECTRE-17607): Assert `SOAC_rpolyh_vpluspsub' is ignored because it contains an expression which is invalid or not supported by native evaluator. 
    WARNING (SPECTRE-16460): SOAC_cvarm_vspsub:Specified subcircuit master `cvarm' was not found.
    WARNING (SPECTRE-16462): SOAC_cvarm_vspsub:Error in specification of subcircuit master. Assert is ignored.
    WARNING (SPECTRE-16460): SOAC_cvarm_vbs:Specified subcircuit master `cvarm' was not found.
    WARNING (SPECTRE-16462): SOAC_cvarm_vbs:Error in specification of subcircuit master. Assert is ignored.
    WARNING (SPECTRE-16460): SOAC_cvarm_vgb:Specified subcircuit master `cvarm' was not found.
    WARNING (SPECTRE-16462): SOAC_cvarm_vgb:Error in specification of subcircuit master. Assert is ignored.
    WARNING (SPECTRE-16460): SOAC_cvart_vspsub:Specified subcircuit master `cvart' was not found.
    WARNING (SPECTRE-16462): SOAC_cvart_vspsub:Error in specification of subcircuit master. Assert is ignored.
    WARNING (SPECTRE-16460): SOAC_cvart_vbs:Specified subcircuit master `cvart' was not found.
        Further occurrences of this warning will be suppressed.
    WARNING (SPECTRE-16462): SOAC_cvart_vbs:Error in specification of subcircuit master. Assert is ignored.
        Further occurrences of this warning will be suppressed.
    WARNING (SPECTRE-17607): Assert `SOAC_cpoly_vminuspsub' is ignored because it contains an expression which is invalid or not supported by native evaluator. 
    WARNING (SPECTRE-17607): Assert `SOAC_cpoly_vpluspsub' is ignored because it contains an expression which is invalid or not supported by native evaluator. 
    WARNING (SPECTRE-17607): Assert `SOAC_modp_vbpsub' is ignored because it contains an expression which is invalid or not supported by native evaluator. 
        Further occurrences of this warning will be suppressed.
Notice from spectre during initial setup.
    Multithreading is disabled due to the size of the design being too small.


Netlist title:
        // Point Netlist Generated on: Apr 16 08:27:57 2026


Global user options:
         psfversion = 1.4.0
            vabstol = 1e-06
            iabstol = 1e-12
               temp = 27
           homotopy = 5
              limit = delta
         compatible = spice2
               gmin = 1e-12
             rforce = 1
           maxnotes = 5
           maxwarns = 5
             digits = 5
               cols = 80
             pivrel = 0.001
           sensfile = ../psf/sens.output
     checklimitdest = psf
     enable_pre_ver = yes
      ignorezerovar = yes
               save = allpub
             reltol = 0.0001
               tnom = 27
             scalem = 1
              scale = 1

Scoped user options:

Circuit inventory:
              nodes 34
            bsim3v3 35    
     bsource_fcab9d 2     
          capacitor 38    
            isource 1     
           resistor 1     
            vsource 8     

Analysis and control statement inventory:
               info 6     
         montecarlo 1     
                 xf 1     

Output statements:
             .probe 0     
           .measure 0     
               save 0     

Design checks inventory:
          paramtest 55    
             assert 175   


Notice from spectre during initial setup.
    APS enabled.
    73 warnings suppressed.

Time for parsing: CPU = 20.733 ms, elapsed = 661.871 ms.
Time accumulated: CPU = 497.561 ms, elapsed = 1.06602 s.
Peak resident memory used = 195 Mbytes.

~~~~~~~~~~~~~~~~~~~~~~
Pre-Simulation Summary
~~~~~~~~~~~~~~~~~~~~~~
   -   (APS) Multi-threading. The recommended number of threads is 1, consider adding +mt=1 on command line.
~~~~~~~~~~~~~~~~~~~~~~

**************************************************
Monte Carlo Analysis `mc1': iteration = (27 -> 39)
**************************************************
Important parameter values:
    seed = 12345
    sampling = lds
    variations = all
    firstrun = 27
    numruns = 13
    nullmfactorcorrelation = no
    donominal = no
    method = standard
Opening iteration number and data-directory mapping file:  /home/davidevi/Desktop/myproject/Sim/VGA/VGA_1_tb/adexl/results/data/MonteCarlo.2/27/xf_MC/groupRunDataDir/netlist/../psf/mc1.mapping

Statistical parameters:
    Defined process parameters: 629
    Defined mismatch parameters (subckt based): 86
    Non-referenced mismatch parameters: 80
    Number of random variables: 718
    Gaussian truncation for process parameters: 4.00 sigma
    Gaussian truncation for mismatch parameters: 4.00 sigma


**** Skipping runs 1 to 26 for `mc1'


Opening the PSF file ../psf/mc1_xf.montecarlo ...

Opening the PSF file ../psf/mc1_modelParameter.montecarlo ...

Opening the PSF file ../psf/mc1_element.montecarlo ...

Opening the PSF file ../psf/mc1_outputParameter.montecarlo ...

Opening the PSF file ../psf/mc1_designParamVals.montecarlo ...

Opening the PSF file ../psf/mc1_primitives.montecarlo ...

Opening the PSF file ../psf/mc1_subckts.montecarlo ...

**** Performing monte carlo loop for `mc1'

27   0.00% 

*****************************************************************************************
* 
* INFO: AMS_processOption = C35B4C3
* 
* INFO: Valid Modules  PIP VG5 HIRES
* 
*****************************************************************************************


***********************************************************
Transfer Function Analysis `xf': freq = (10 mHz -> 100 MHz)
***********************************************************

Opening the PSF file ../psf/mc1_separate/027/xf.xf ...

Notice from spectre at freq = 0 Hz during DC analysis, during XF analysis `xf', during Monte Carlo analysis `mc1'.
    No checklimit analysis defined for asserts. A default checklimit analysis 'SpectreChecklimitAnal' has been created with all asserts enabled.
Notice from spectre at freq = 0 Hz during DC analysis, during XF analysis `xf', during Monte Carlo analysis `mc1'.
    Bad pivoting is found during DC analysis. Option dc_pivot_check=yes is recommended for possible improvement of convergence.
Warning from spectre at freq = 0 Hz during check, during DC analysis, during XF analysis `xf', during Monte Carlo analysis `mc1'.
    WARNING (CMI-2943): Parameter checks have been ignored because the valid value for parameter 'trise' could not be found in 'C1'.
    WARNING (CMI-2943): Parameter checks have been ignored because the valid value for parameter 'trise' could not be found in 'I0.R2.CM'.
    WARNING (CMI-2943): Parameter checks have been ignored because the valid value for parameter 'trise' could not be found in 'I0.R2.CS1'.
    WARNING (CMI-2943): Parameter checks have been ignored because the valid value for parameter 'trise' could not be found in 'I0.R2.CS0'.
    WARNING (CMI-2943): Parameter checks have been ignored because the valid value for parameter 'trise' could not be found in 'I0.C8<3>.C1'.
        Further occurrences of this warning will be suppressed.

Convergence achieved in 19 iterations.
DC simulation time: CPU = 2.761 ms, elapsed = 2.75993 ms.
    xf: freq = 25.12 mHz      (4 %), step = 9.27 mHz        (2 %)
    xf: freq = 39.81 mHz      (6 %), step = 14.69 mHz       (2 %)
    xf: freq = 63.1 mHz       (8 %), step = 23.29 mHz       (2 %)
    xf: freq = 100 mHz       (10 %), step = 36.9 mHz        (2 %)
    xf: freq = 158.5 mHz     (12 %), step = 58.49 mHz       (2 %)
    xf: freq = 251.2 mHz     (14 %), step = 92.7 mHz        (2 %)
    xf: freq = 398.1 mHz     (16 %), step = 146.9 mHz       (2 %)
    xf: freq = 631 mHz       (18 %), step = 232.9 mHz       (2 %)
    xf: freq = 1 Hz          (20 %), step = 369 mHz         (2 %)
    xf: freq = 1.585 Hz      (22 %), step = 584.9 mHz       (2 %)
    xf: freq = 2.512 Hz      (24 %), step = 927 mHz         (2 %)
    xf: freq = 3.981 Hz      (26 %), step = 1.469 Hz        (2 %)
    xf: freq = 6.31 Hz       (28 %), step = 2.329 Hz        (2 %)
    xf: freq = 10 Hz         (30 %), step = 3.69 Hz         (2 %)
    xf: freq = 15.85 Hz      (32 %), step = 5.849 Hz        (2 %)
    xf: freq = 25.12 Hz      (34 %), step = 9.27 Hz         (2 %)
    xf: freq = 39.81 Hz      (36 %), step = 14.69 Hz        (2 %)
    xf: freq = 63.1 Hz       (38 %), step = 23.29 Hz        (2 %)
    xf: freq = 100 Hz        (40 %), step = 36.9 Hz         (2 %)
    xf: freq = 158.5 Hz      (42 %), step = 58.49 Hz        (2 %)
    xf: freq = 251.2 Hz      (44 %), step = 92.7 Hz         (2 %)
    xf: freq = 398.1 Hz      (46 %), step = 146.9 Hz        (2 %)
    xf: freq = 631 Hz        (48 %), step = 232.9 Hz        (2 %)
    xf: freq = 1 kHz         (50 %), step = 369 Hz          (2 %)
    xf: freq = 1.585 kHz     (52 %), step = 584.9 Hz        (2 %)
    xf: freq = 2.512 kHz     (54 %), step = 927 Hz          (2 %)
    xf: freq = 3.981 kHz     (56 %), step = 1.469 kHz       (2 %)
    xf: freq = 6.31 kHz      (58 %), step = 2.329 kHz       (2 %)
    xf: freq = 10 kHz        (60 %), step = 3.69 kHz        (2 %)
    xf: freq = 15.85 kHz     (62 %), step = 5.849 kHz       (2 %)
    xf: freq = 25.12 kHz     (64 %), step = 9.27 kHz        (2 %)
    xf: freq = 39.81 kHz     (66 %), step = 14.69 kHz       (2 %)
    xf: freq = 63.1 kHz      (68 %), step = 23.29 kHz       (2 %)
    xf: freq = 100 kHz       (70 %), step = 36.9 kHz        (2 %)
    xf: freq = 158.5 kHz     (72 %), step = 58.49 kHz       (2 %)
    xf: freq = 251.2 kHz     (74 %), step = 92.7 kHz        (2 %)
    xf: freq = 398.1 kHz     (76 %), step = 146.9 kHz       (2 %)
    xf: freq = 631 kHz       (78 %), step = 232.9 kHz       (2 %)
    xf: freq = 1 MHz         (80 %), step = 369 kHz         (2 %)
    xf: freq = 1.585 MHz     (82 %), step = 584.9 kHz       (2 %)
    xf: freq = 2.512 MHz     (84 %), step = 927 kHz         (2 %)
    xf: freq = 3.981 MHz     (86 %), step = 1.469 MHz       (2 %)
    xf: freq = 6.31 MHz      (88 %), step = 2.329 MHz       (2 %)
    xf: freq = 10 MHz        (90 %), step = 3.69 MHz        (2 %)
    xf: freq = 15.85 MHz     (92 %), step = 5.849 MHz       (2 %)
    xf: freq = 25.12 MHz     (94 %), step = 9.27 MHz        (2 %)
    xf: freq = 39.81 MHz     (96 %), step = 14.69 MHz       (2 %)
    xf: freq = 63.1 MHz      (98 %), step = 23.29 MHz       (2 %)
    xf: freq = 100 MHz      (100 %), step = 36.9 MHz        (2 %)
Accumulated DC solution time =            0 s.
Intrinsic xf analysis time =              9.13286 ms.
Total time required for xf analysis `xf': CPU = 9.497 ms, elapsed = 10.2661 ms, util. = 92.5%.
Time accumulated: CPU = 585.87 ms, elapsed = 1.16054 s.
Peak resident memory used = 200 Mbytes.


Notice from spectre during XF analysis `xf', during Monte Carlo analysis `mc1'.
    34 warnings suppressed.

modelParameter: writing model parameter values to rawfile.

Opening the PSF file ../psf/mc1_separate/027/modelParameter.info ...
element: writing instance parameter values to rawfile.

Opening the PSF file ../psf/mc1_separate/027/element.info ...
outputParameter: writing output parameter values to rawfile.

Opening the PSF file ../psf/mc1_separate/027/outputParameter.info ...
designParamVals: writing netlist parameters to rawfile.

Opening the PSFASCII file ../psf/mc1_separate/027/designParamVals.info ...
primitives: writing primitives to rawfile.

Opening the PSFASCII file ../psf/mc1_separate/027/primitives.info.primitives ...
subckts: writing subcircuits to rawfile.

Opening the PSFASCII file ../psf/mc1_separate/027/subckts.info.subckts ...
28   8.33% 

*****************************************************************************************
* 
* INFO: AMS_processOption = C35B4C3
* 
* INFO: Valid Modules  PIP VG5 HIRES
* 
*****************************************************************************************


***********************************************************
Transfer Function Analysis `xf': freq = (10 mHz -> 100 MHz)
***********************************************************

Opening the PSF file ../psf/mc1_separate/028/xf.xf ...

Notice from spectre at freq = 0 Hz during DC analysis, during XF analysis `xf', during Monte Carlo analysis `mc1'.
    Bad pivoting is found during DC analysis. Option dc_pivot_check=yes is recommended for possible improvement of convergence.
Warning from spectre at freq = 0 Hz during check, during DC analysis, during XF analysis `xf', during Monte Carlo analysis `mc1'.
    WARNING (CMI-2943): Parameter checks have been ignored because the valid value for parameter 'trise' could not be found in 'C1'.
    WARNING (CMI-2943): Parameter checks have been ignored because the valid value for parameter 'trise' could not be found in 'I0.R2.CM'.
    WARNING (CMI-2943): Parameter checks have been ignored because the valid value for parameter 'trise' could not be found in 'I0.R2.CS1'.
    WARNING (CMI-2943): Parameter checks have been ignored because the valid value for parameter 'trise' could not be found in 'I0.R2.CS0'.
    WARNING (CMI-2943): Parameter checks have been ignored because the valid value for parameter 'trise' could not be found in 'I0.C8<3>.C1'.
        Further occurrences of this warning will be suppressed.

Convergence achieved in 20 iterations.
DC simulation time: CPU = 2.335 ms, elapsed = 2.33507 ms.
    xf: freq = 25.12 mHz      (4 %), step = 9.27 mHz        (2 %)
    xf: freq = 39.81 mHz      (6 %), step = 14.69 mHz       (2 %)
    xf: freq = 63.1 mHz       (8 %), step = 23.29 mHz       (2 %)
    xf: freq = 100 mHz       (10 %), step = 36.9 mHz        (2 %)
    xf: freq = 158.5 mHz     (12 %), step = 58.49 mHz       (2 %)
    xf: freq = 251.2 mHz     (14 %), step = 92.7 mHz        (2 %)
    xf: freq = 398.1 mHz     (16 %), step = 146.9 mHz       (2 %)
    xf: freq = 631 mHz       (18 %), step = 232.9 mHz       (2 %)
    xf: freq = 1 Hz          (20 %), step = 369 mHz         (2 %)
    xf: freq = 1.585 Hz      (22 %), step = 584.9 mHz       (2 %)
    xf: freq = 2.512 Hz      (24 %), step = 927 mHz         (2 %)
    xf: freq = 3.981 Hz      (26 %), step = 1.469 Hz        (2 %)
    xf: freq = 6.31 Hz       (28 %), step = 2.329 Hz        (2 %)
    xf: freq = 10 Hz         (30 %), step = 3.69 Hz         (2 %)
    xf: freq = 15.85 Hz      (32 %), step = 5.849 Hz        (2 %)
    xf: freq = 25.12 Hz      (34 %), step = 9.27 Hz         (2 %)
    xf: freq = 39.81 Hz      (36 %), step = 14.69 Hz        (2 %)
    xf: freq = 63.1 Hz       (38 %), step = 23.29 Hz        (2 %)
    xf: freq = 100 Hz        (40 %), step = 36.9 Hz         (2 %)
    xf: freq = 158.5 Hz      (42 %), step = 58.49 Hz        (2 %)
    xf: freq = 251.2 Hz      (44 %), step = 92.7 Hz         (2 %)
    xf: freq = 398.1 Hz      (46 %), step = 146.9 Hz        (2 %)
    xf: freq = 631 Hz        (48 %), step = 232.9 Hz        (2 %)
    xf: freq = 1 kHz         (50 %), step = 369 Hz          (2 %)
    xf: freq = 1.585 kHz     (52 %), step = 584.9 Hz        (2 %)
    xf: freq = 2.512 kHz     (54 %), step = 927 Hz          (2 %)
    xf: freq = 3.981 kHz     (56 %), step = 1.469 kHz       (2 %)
    xf: freq = 6.31 kHz      (58 %), step = 2.329 kHz       (2 %)
    xf: freq = 10 kHz        (60 %), step = 3.69 kHz        (2 %)
    xf: freq = 15.85 kHz     (62 %), step = 5.849 kHz       (2 %)
    xf: freq = 25.12 kHz     (64 %), step = 9.27 kHz        (2 %)
    xf: freq = 39.81 kHz     (66 %), step = 14.69 kHz       (2 %)
    xf: freq = 63.1 kHz      (68 %), step = 23.29 kHz       (2 %)
    xf: freq = 100 kHz       (70 %), step = 36.9 kHz        (2 %)
    xf: freq = 158.5 kHz     (72 %), step = 58.49 kHz       (2 %)
    xf: freq = 251.2 kHz     (74 %), step = 92.7 kHz        (2 %)
    xf: freq = 398.1 kHz     (76 %), step = 146.9 kHz       (2 %)
    xf: freq = 631 kHz       (78 %), step = 232.9 kHz       (2 %)
    xf: freq = 1 MHz         (80 %), step = 369 kHz         (2 %)
    xf: freq = 1.585 MHz     (82 %), step = 584.9 kHz       (2 %)
    xf: freq = 2.512 MHz     (84 %), step = 927 kHz         (2 %)
    xf: freq = 3.981 MHz     (86 %), step = 1.469 MHz       (2 %)
    xf: freq = 6.31 MHz      (88 %), step = 2.329 MHz       (2 %)
    xf: freq = 10 MHz        (90 %), step = 3.69 MHz        (2 %)
    xf: freq = 15.85 MHz     (92 %), step = 5.849 MHz       (2 %)
    xf: freq = 25.12 MHz     (94 %), step = 9.27 MHz        (2 %)
    xf: freq = 39.81 MHz     (96 %), step = 14.69 MHz       (2 %)
    xf: freq = 63.1 MHz      (98 %), step = 23.29 MHz       (2 %)
    xf: freq = 100 MHz      (100 %), step = 36.9 MHz        (2 %)
Accumulated DC solution time =            953.674 ns.
Intrinsic xf analysis time =              8.54993 ms.
Total time required for xf analysis `xf': CPU = 8.196 ms, elapsed = 8.93092 ms, util. = 91.8%.
Time accumulated: CPU = 630.211 ms, elapsed = 1.21407 s.
Peak resident memory used = 202 Mbytes.


Notice from spectre during XF analysis `xf', during Monte Carlo analysis `mc1'.
    34 warnings suppressed.

modelParameter: writing model parameter values to rawfile.

Opening the PSF file ../psf/mc1_separate/028/modelParameter.info ...
element: writing instance parameter values to rawfile.

Opening the PSF file ../psf/mc1_separate/028/element.info ...
outputParameter: writing output parameter values to rawfile.

Opening the PSF file ../psf/mc1_separate/028/outputParameter.info ...
designParamVals: writing netlist parameters to rawfile.

Opening the PSFASCII file ../psf/mc1_separate/028/designParamVals.info ...
primitives: writing primitives to rawfile.

Opening the PSFASCII file ../psf/mc1_separate/028/primitives.info.primitives ...
subckts: writing subcircuits to rawfile.

Opening the PSFASCII file ../psf/mc1_separate/028/subckts.info.subckts ...
    mc1: iteration = 28          (8.33 %), step = 1            (8.33 %)
29  16.67% 

*****************************************************************************************
* 
* INFO: AMS_processOption = C35B4C3
* 
* INFO: Valid Modules  PIP VG5 HIRES
* 
*****************************************************************************************


***********************************************************
Transfer Function Analysis `xf': freq = (10 mHz -> 100 MHz)
***********************************************************

Opening the PSF file ../psf/mc1_separate/029/xf.xf ...

Warning from spectre at freq = 0 Hz during check, during DC analysis, during XF analysis `xf', during Monte Carlo analysis `mc1'.
    WARNING (CMI-2943): Parameter checks have been ignored because the valid value for parameter 'trise' could not be found in 'C1'.
    WARNING (CMI-2943): Parameter checks have been ignored because the valid value for parameter 'trise' could not be found in 'I0.R2.CM'.
    WARNING (CMI-2943): Parameter checks have been ignored because the valid value for parameter 'trise' could not be found in 'I0.R2.CS1'.
    WARNING (CMI-2943): Parameter checks have been ignored because the valid value for parameter 'trise' could not be found in 'I0.R2.CS0'.
    WARNING (CMI-2943): Parameter checks have been ignored because the valid value for parameter 'trise' could not be found in 'I0.C8<3>.C1'.
        Further occurrences of this warning will be suppressed.

Convergence achieved in 19 iterations.
DC simulation time: CPU = 2.251 ms, elapsed = 2.25091 ms.
    xf: freq = 25.12 mHz      (4 %), step = 9.27 mHz        (2 %)
    xf: freq = 39.81 mHz      (6 %), step = 14.69 mHz       (2 %)
    xf: freq = 63.1 mHz       (8 %), step = 23.29 mHz       (2 %)
    xf: freq = 100 mHz       (10 %), step = 36.9 mHz        (2 %)
    xf: freq = 158.5 mHz     (12 %), step = 58.49 mHz       (2 %)
    xf: freq = 251.2 mHz     (14 %), step = 92.7 mHz        (2 %)
    xf: freq = 398.1 mHz     (16 %), step = 146.9 mHz       (2 %)
    xf: freq = 631 mHz       (18 %), step = 232.9 mHz       (2 %)
    xf: freq = 1 Hz          (20 %), step = 369 mHz         (2 %)
    xf: freq = 1.585 Hz      (22 %), step = 584.9 mHz       (2 %)
    xf: freq = 2.512 Hz      (24 %), step = 927 mHz         (2 %)
    xf: freq = 3.981 Hz      (26 %), step = 1.469 Hz        (2 %)
    xf: freq = 6.31 Hz       (28 %), step = 2.329 Hz        (2 %)
    xf: freq = 10 Hz         (30 %), step = 3.69 Hz         (2 %)
    xf: freq = 15.85 Hz      (32 %), step = 5.849 Hz        (2 %)
    xf: freq = 25.12 Hz      (34 %), step = 9.27 Hz         (2 %)
    xf: freq = 39.81 Hz      (36 %), step = 14.69 Hz        (2 %)
    xf: freq = 63.1 Hz       (38 %), step = 23.29 Hz        (2 %)
    xf: freq = 100 Hz        (40 %), step = 36.9 Hz         (2 %)
    xf: freq = 158.5 Hz      (42 %), step = 58.49 Hz        (2 %)
    xf: freq = 251.2 Hz      (44 %), step = 92.7 Hz         (2 %)
    xf: freq = 398.1 Hz      (46 %), step = 146.9 Hz        (2 %)
    xf: freq = 631 Hz        (48 %), step = 232.9 Hz        (2 %)
    xf: freq = 1 kHz         (50 %), step = 369 Hz          (2 %)
    xf: freq = 1.585 kHz     (52 %), step = 584.9 Hz        (2 %)
    xf: freq = 2.512 kHz     (54 %), step = 927 Hz          (2 %)
    xf: freq = 3.981 kHz     (56 %), step = 1.469 kHz       (2 %)
    xf: freq = 6.31 kHz      (58 %), step = 2.329 kHz       (2 %)
    xf: freq = 10 kHz        (60 %), step = 3.69 kHz        (2 %)
    xf: freq = 15.85 kHz     (62 %), step = 5.849 kHz       (2 %)
    xf: freq = 25.12 kHz     (64 %), step = 9.27 kHz        (2 %)
    xf: freq = 39.81 kHz     (66 %), step = 14.69 kHz       (2 %)
    xf: freq = 63.1 kHz      (68 %), step = 23.29 kHz       (2 %)
    xf: freq = 100 kHz       (70 %), step = 36.9 kHz        (2 %)
    xf: freq = 158.5 kHz     (72 %), step = 58.49 kHz       (2 %)
    xf: freq = 251.2 kHz     (74 %), step = 92.7 kHz        (2 %)
    xf: freq = 398.1 kHz     (76 %), step = 146.9 kHz       (2 %)
    xf: freq = 631 kHz       (78 %), step = 232.9 kHz       (2 %)
    xf: freq = 1 MHz         (80 %), step = 369 kHz         (2 %)
    xf: freq = 1.585 MHz     (82 %), step = 584.9 kHz       (2 %)
    xf: freq = 2.512 MHz     (84 %), step = 927 kHz         (2 %)
    xf: freq = 3.981 MHz     (86 %), step = 1.469 MHz       (2 %)
    xf: freq = 6.31 MHz      (88 %), step = 2.329 MHz       (2 %)
    xf: freq = 10 MHz        (90 %), step = 3.69 MHz        (2 %)
    xf: freq = 15.85 MHz     (92 %), step = 5.849 MHz       (2 %)
    xf: freq = 25.12 MHz     (94 %), step = 9.27 MHz        (2 %)
    xf: freq = 39.81 MHz     (96 %), step = 14.69 MHz       (2 %)
    xf: freq = 63.1 MHz      (98 %), step = 23.29 MHz       (2 %)
    xf: freq = 100 MHz      (100 %), step = 36.9 MHz        (2 %)
Accumulated DC solution time =            0 s.
Intrinsic xf analysis time =              8.40402 ms.
Total time required for xf analysis `xf': CPU = 7.856 ms, elapsed = 8.71301 ms, util. = 90.2%.
Time accumulated: CPU = 672.434 ms, elapsed = 1.26553 s.
Peak resident memory used = 202 Mbytes.


Notice from spectre during XF analysis `xf', during Monte Carlo analysis `mc1'.
    34 warnings suppressed.

modelParameter: writing model parameter values to rawfile.

Opening the PSF file ../psf/mc1_separate/029/modelParameter.info ...
element: writing instance parameter values to rawfile.

Opening the PSF file ../psf/mc1_separate/029/element.info ...
outputParameter: writing output parameter values to rawfile.

Opening the PSF file ../psf/mc1_separate/029/outputParameter.info ...
designParamVals: writing netlist parameters to rawfile.

Opening the PSFASCII file ../psf/mc1_separate/029/designParamVals.info ...
primitives: writing primitives to rawfile.

Opening the PSFASCII file ../psf/mc1_separate/029/primitives.info.primitives ...
subckts: writing subcircuits to rawfile.

Opening the PSFASCII file ../psf/mc1_separate/029/subckts.info.subckts ...
    mc1: iteration = 29          (16.7 %), step = 1            (8.33 %)
30  25.00% 

*****************************************************************************************
* 
* INFO: AMS_processOption = C35B4C3
* 
* INFO: Valid Modules  PIP VG5 HIRES
* 
*****************************************************************************************


***********************************************************
Transfer Function Analysis `xf': freq = (10 mHz -> 100 MHz)
***********************************************************

Opening the PSF file ../psf/mc1_separate/030/xf.xf ...

Notice from spectre at freq = 0 Hz during DC analysis, during XF analysis `xf', during Monte Carlo analysis `mc1'.
    Bad pivoting is found during DC analysis. Option dc_pivot_check=yes is recommended for possible improvement of convergence.
Warning from spectre at freq = 0 Hz during check, during DC analysis, during XF analysis `xf', during Monte Carlo analysis `mc1'.
    WARNING (CMI-2943): Parameter checks have been ignored because the valid value for parameter 'trise' could not be found in 'C1'.
    WARNING (CMI-2943): Parameter checks have been ignored because the valid value for parameter 'trise' could not be found in 'I0.R2.CM'.
    WARNING (CMI-2943): Parameter checks have been ignored because the valid value for parameter 'trise' could not be found in 'I0.R2.CS1'.
    WARNING (CMI-2943): Parameter checks have been ignored because the valid value for parameter 'trise' could not be found in 'I0.R2.CS0'.
    WARNING (CMI-2943): Parameter checks have been ignored because the valid value for parameter 'trise' could not be found in 'I0.C8<3>.C1'.
        Further occurrences of this warning will be suppressed.

Convergence achieved in 18 iterations.
DC simulation time: CPU = 2.25 ms, elapsed = 2.25115 ms.
    xf: freq = 25.12 mHz      (4 %), step = 9.27 mHz        (2 %)
    xf: freq = 39.81 mHz      (6 %), step = 14.69 mHz       (2 %)
    xf: freq = 63.1 mHz       (8 %), step = 23.29 mHz       (2 %)
    xf: freq = 100 mHz       (10 %), step = 36.9 mHz        (2 %)
    xf: freq = 158.5 mHz     (12 %), step = 58.49 mHz       (2 %)
    xf: freq = 251.2 mHz     (14 %), step = 92.7 mHz        (2 %)
    xf: freq = 398.1 mHz     (16 %), step = 146.9 mHz       (2 %)
    xf: freq = 631 mHz       (18 %), step = 232.9 mHz       (2 %)
    xf: freq = 1 Hz          (20 %), step = 369 mHz         (2 %)
    xf: freq = 1.585 Hz      (22 %), step = 584.9 mHz       (2 %)
    xf: freq = 2.512 Hz      (24 %), step = 927 mHz         (2 %)
    xf: freq = 3.981 Hz      (26 %), step = 1.469 Hz        (2 %)
    xf: freq = 6.31 Hz       (28 %), step = 2.329 Hz        (2 %)
    xf: freq = 10 Hz         (30 %), step = 3.69 Hz         (2 %)
    xf: freq = 15.85 Hz      (32 %), step = 5.849 Hz        (2 %)
    xf: freq = 25.12 Hz      (34 %), step = 9.27 Hz         (2 %)
    xf: freq = 39.81 Hz      (36 %), step = 14.69 Hz        (2 %)
    xf: freq = 63.1 Hz       (38 %), step = 23.29 Hz        (2 %)
    xf: freq = 100 Hz        (40 %), step = 36.9 Hz         (2 %)
    xf: freq = 158.5 Hz      (42 %), step = 58.49 Hz        (2 %)
    xf: freq = 251.2 Hz      (44 %), step = 92.7 Hz         (2 %)
    xf: freq = 398.1 Hz      (46 %), step = 146.9 Hz        (2 %)
    xf: freq = 631 Hz        (48 %), step = 232.9 Hz        (2 %)
    xf: freq = 1 kHz         (50 %), step = 369 Hz          (2 %)
    xf: freq = 1.585 kHz     (52 %), step = 584.9 Hz        (2 %)
    xf: freq = 2.512 kHz     (54 %), step = 927 Hz          (2 %)
    xf: freq = 3.981 kHz     (56 %), step = 1.469 kHz       (2 %)
    xf: freq = 6.31 kHz      (58 %), step = 2.329 kHz       (2 %)
    xf: freq = 10 kHz        (60 %), step = 3.69 kHz        (2 %)
    xf: freq = 15.85 kHz     (62 %), step = 5.849 kHz       (2 %)
    xf: freq = 25.12 kHz     (64 %), step = 9.27 kHz        (2 %)
    xf: freq = 39.81 kHz     (66 %), step = 14.69 kHz       (2 %)
    xf: freq = 63.1 kHz      (68 %), step = 23.29 kHz       (2 %)
    xf: freq = 100 kHz       (70 %), step = 36.9 kHz        (2 %)
    xf: freq = 158.5 kHz     (72 %), step = 58.49 kHz       (2 %)
    xf: freq = 251.2 kHz     (74 %), step = 92.7 kHz        (2 %)
    xf: freq = 398.1 kHz     (76 %), step = 146.9 kHz       (2 %)
    xf: freq = 631 kHz       (78 %), step = 232.9 kHz       (2 %)
    xf: freq = 1 MHz         (80 %), step = 369 kHz         (2 %)
    xf: freq = 1.585 MHz     (82 %), step = 584.9 kHz       (2 %)
    xf: freq = 2.512 MHz     (84 %), step = 927 kHz         (2 %)
    xf: freq = 3.981 MHz     (86 %), step = 1.469 MHz       (2 %)
    xf: freq = 6.31 MHz      (88 %), step = 2.329 MHz       (2 %)
    xf: freq = 10 MHz        (90 %), step = 3.69 MHz        (2 %)
    xf: freq = 15.85 MHz     (92 %), step = 5.849 MHz       (2 %)
    xf: freq = 25.12 MHz     (94 %), step = 9.27 MHz        (2 %)
    xf: freq = 39.81 MHz     (96 %), step = 14.69 MHz       (2 %)
    xf: freq = 63.1 MHz      (98 %), step = 23.29 MHz       (2 %)
    xf: freq = 100 MHz      (100 %), step = 36.9 MHz        (2 %)
Accumulated DC solution time =            0 s.
Intrinsic xf analysis time =              8.26693 ms.
Total time required for xf analysis `xf': CPU = 7.888 ms, elapsed = 8.58307 ms, util. = 91.9%.
Time accumulated: CPU = 714.947 ms, elapsed = 1.31771 s.
Peak resident memory used = 202 Mbytes.


Notice from spectre during XF analysis `xf', during Monte Carlo analysis `mc1'.
    34 warnings suppressed.

modelParameter: writing model parameter values to rawfile.

Opening the PSF file ../psf/mc1_separate/030/modelParameter.info ...
element: writing instance parameter values to rawfile.

Opening the PSF file ../psf/mc1_separate/030/element.info ...
outputParameter: writing output parameter values to rawfile.

Opening the PSF file ../psf/mc1_separate/030/outputParameter.info ...
designParamVals: writing netlist parameters to rawfile.

Opening the PSFASCII file ../psf/mc1_separate/030/designParamVals.info ...
primitives: writing primitives to rawfile.

Opening the PSFASCII file ../psf/mc1_separate/030/primitives.info.primitives ...
subckts: writing subcircuits to rawfile.

Opening the PSFASCII file ../psf/mc1_separate/030/subckts.info.subckts ...
    mc1: iteration = 30            (25 %), step = 1            (8.33 %)
31  33.33% 

*****************************************************************************************
* 
* INFO: AMS_processOption = C35B4C3
* 
* INFO: Valid Modules  PIP VG5 HIRES
* 
*****************************************************************************************


***********************************************************
Transfer Function Analysis `xf': freq = (10 mHz -> 100 MHz)
***********************************************************

Opening the PSF file ../psf/mc1_separate/031/xf.xf ...

Warning from spectre at freq = 0 Hz during check, during DC analysis, during XF analysis `xf', during Monte Carlo analysis `mc1'.
    WARNING (CMI-2943): Parameter checks have been ignored because the valid value for parameter 'trise' could not be found in 'C1'.
    WARNING (CMI-2943): Parameter checks have been ignored because the valid value for parameter 'trise' could not be found in 'I0.R2.CM'.
    WARNING (CMI-2943): Parameter checks have been ignored because the valid value for parameter 'trise' could not be found in 'I0.R2.CS1'.
    WARNING (CMI-2943): Parameter checks have been ignored because the valid value for parameter 'trise' could not be found in 'I0.R2.CS0'.
    WARNING (CMI-2943): Parameter checks have been ignored because the valid value for parameter 'trise' could not be found in 'I0.C8<3>.C1'.
        Further occurrences of this warning will be suppressed.

Convergence achieved in 18 iterations.
DC simulation time: CPU = 2.225 ms, elapsed = 2.22492 ms.
    xf: freq = 25.12 mHz      (4 %), step = 9.27 mHz        (2 %)
    xf: freq = 39.81 mHz      (6 %), step = 14.69 mHz       (2 %)
    xf: freq = 63.1 mHz       (8 %), step = 23.29 mHz       (2 %)
    xf: freq = 100 mHz       (10 %), step = 36.9 mHz        (2 %)
    xf: freq = 158.5 mHz     (12 %), step = 58.49 mHz       (2 %)
    xf: freq = 251.2 mHz     (14 %), step = 92.7 mHz        (2 %)
    xf: freq = 398.1 mHz     (16 %), step = 146.9 mHz       (2 %)
    xf: freq = 631 mHz       (18 %), step = 232.9 mHz       (2 %)
    xf: freq = 1 Hz          (20 %), step = 369 mHz         (2 %)
    xf: freq = 1.585 Hz      (22 %), step = 584.9 mHz       (2 %)
    xf: freq = 2.512 Hz      (24 %), step = 927 mHz         (2 %)
    xf: freq = 3.981 Hz      (26 %), step = 1.469 Hz        (2 %)
    xf: freq = 6.31 Hz       (28 %), step = 2.329 Hz        (2 %)
    xf: freq = 10 Hz         (30 %), step = 3.69 Hz         (2 %)
    xf: freq = 15.85 Hz      (32 %), step = 5.849 Hz        (2 %)
    xf: freq = 25.12 Hz      (34 %), step = 9.27 Hz         (2 %)
    xf: freq = 39.81 Hz      (36 %), step = 14.69 Hz        (2 %)
    xf: freq = 63.1 Hz       (38 %), step = 23.29 Hz        (2 %)
    xf: freq = 100 Hz        (40 %), step = 36.9 Hz         (2 %)
    xf: freq = 158.5 Hz      (42 %), step = 58.49 Hz        (2 %)
    xf: freq = 251.2 Hz      (44 %), step = 92.7 Hz         (2 %)
    xf: freq = 398.1 Hz      (46 %), step = 146.9 Hz        (2 %)
    xf: freq = 631 Hz        (48 %), step = 232.9 Hz        (2 %)
    xf: freq = 1 kHz         (50 %), step = 369 Hz          (2 %)
    xf: freq = 1.585 kHz     (52 %), step = 584.9 Hz        (2 %)
    xf: freq = 2.512 kHz     (54 %), step = 927 Hz          (2 %)
    xf: freq = 3.981 kHz     (56 %), step = 1.469 kHz       (2 %)
    xf: freq = 6.31 kHz      (58 %), step = 2.329 kHz       (2 %)
    xf: freq = 10 kHz        (60 %), step = 3.69 kHz        (2 %)
    xf: freq = 15.85 kHz     (62 %), step = 5.849 kHz       (2 %)
    xf: freq = 25.12 kHz     (64 %), step = 9.27 kHz        (2 %)
    xf: freq = 39.81 kHz     (66 %), step = 14.69 kHz       (2 %)
    xf: freq = 63.1 kHz      (68 %), step = 23.29 kHz       (2 %)
    xf: freq = 100 kHz       (70 %), step = 36.9 kHz        (2 %)
    xf: freq = 158.5 kHz     (72 %), step = 58.49 kHz       (2 %)
    xf: freq = 251.2 kHz     (74 %), step = 92.7 kHz        (2 %)
    xf: freq = 398.1 kHz     (76 %), step = 146.9 kHz       (2 %)
    xf: freq = 631 kHz       (78 %), step = 232.9 kHz       (2 %)
    xf: freq = 1 MHz         (80 %), step = 369 kHz         (2 %)
    xf: freq = 1.585 MHz     (82 %), step = 584.9 kHz       (2 %)
    xf: freq = 2.512 MHz     (84 %), step = 927 kHz         (2 %)
    xf: freq = 3.981 MHz     (86 %), step = 1.469 MHz       (2 %)
    xf: freq = 6.31 MHz      (88 %), step = 2.329 MHz       (2 %)
    xf: freq = 10 MHz        (90 %), step = 3.69 MHz        (2 %)
    xf: freq = 15.85 MHz     (92 %), step = 5.849 MHz       (2 %)
    xf: freq = 25.12 MHz     (94 %), step = 9.27 MHz        (2 %)
    xf: freq = 39.81 MHz     (96 %), step = 14.69 MHz       (2 %)
    xf: freq = 63.1 MHz      (98 %), step = 23.29 MHz       (2 %)
    xf: freq = 100 MHz      (100 %), step = 36.9 MHz        (2 %)
Accumulated DC solution time =            953.674 ns.
Intrinsic xf analysis time =              8.34703 ms.
Total time required for xf analysis `xf': CPU = 7.979 ms, elapsed = 8.69203 ms, util. = 91.8%.
Time accumulated: CPU = 758.159 ms, elapsed = 1.37144 s.
Peak resident memory used = 202 Mbytes.


Notice from spectre during XF analysis `xf', during Monte Carlo analysis `mc1'.
    34 warnings suppressed.

modelParameter: writing model parameter values to rawfile.

Opening the PSF file ../psf/mc1_separate/031/modelParameter.info ...
element: writing instance parameter values to rawfile.

Opening the PSF file ../psf/mc1_separate/031/element.info ...
outputParameter: writing output parameter values to rawfile.

Opening the PSF file ../psf/mc1_separate/031/outputParameter.info ...
designParamVals: writing netlist parameters to rawfile.

Opening the PSFASCII file ../psf/mc1_separate/031/designParamVals.info ...
primitives: writing primitives to rawfile.

Opening the PSFASCII file ../psf/mc1_separate/031/primitives.info.primitives ...
subckts: writing subcircuits to rawfile.

Opening the PSFASCII file ../psf/mc1_separate/031/subckts.info.subckts ...
    mc1: iteration = 31          (33.3 %), step = 1            (8.33 %)
32  41.67% 

*****************************************************************************************
* 
* INFO: AMS_processOption = C35B4C3
* 
* INFO: Valid Modules  PIP VG5 HIRES
* 
*****************************************************************************************


***********************************************************
Transfer Function Analysis `xf': freq = (10 mHz -> 100 MHz)
***********************************************************

Opening the PSF file ../psf/mc1_separate/032/xf.xf ...

Warning from spectre at freq = 0 Hz during check, during DC analysis, during XF analysis `xf', during Monte Carlo analysis `mc1'.
    WARNING (CMI-2943): Parameter checks have been ignored because the valid value for parameter 'trise' could not be found in 'C1'.
    WARNING (CMI-2943): Parameter checks have been ignored because the valid value for parameter 'trise' could not be found in 'I0.R2.CM'.
    WARNING (CMI-2943): Parameter checks have been ignored because the valid value for parameter 'trise' could not be found in 'I0.R2.CS1'.
    WARNING (CMI-2943): Parameter checks have been ignored because the valid value for parameter 'trise' could not be found in 'I0.R2.CS0'.
    WARNING (CMI-2943): Parameter checks have been ignored because the valid value for parameter 'trise' could not be found in 'I0.C8<3>.C1'.
        Further occurrences of this warning will be suppressed.

Convergence achieved in 20 iterations.
DC simulation time: CPU = 2.312 ms, elapsed = 2.32506 ms.
    xf: freq = 25.12 mHz      (4 %), step = 9.27 mHz        (2 %)
    xf: freq = 39.81 mHz      (6 %), step = 14.69 mHz       (2 %)
    xf: freq = 63.1 mHz       (8 %), step = 23.29 mHz       (2 %)
    xf: freq = 100 mHz       (10 %), step = 36.9 mHz        (2 %)
    xf: freq = 158.5 mHz     (12 %), step = 58.49 mHz       (2 %)
    xf: freq = 251.2 mHz     (14 %), step = 92.7 mHz        (2 %)
    xf: freq = 398.1 mHz     (16 %), step = 146.9 mHz       (2 %)
    xf: freq = 631 mHz       (18 %), step = 232.9 mHz       (2 %)
    xf: freq = 1 Hz          (20 %), step = 369 mHz         (2 %)
    xf: freq = 1.585 Hz      (22 %), step = 584.9 mHz       (2 %)
    xf: freq = 2.512 Hz      (24 %), step = 927 mHz         (2 %)
    xf: freq = 3.981 Hz      (26 %), step = 1.469 Hz        (2 %)
    xf: freq = 6.31 Hz       (28 %), step = 2.329 Hz        (2 %)
    xf: freq = 10 Hz         (30 %), step = 3.69 Hz         (2 %)
    xf: freq = 15.85 Hz      (32 %), step = 5.849 Hz        (2 %)
    xf: freq = 25.12 Hz      (34 %), step = 9.27 Hz         (2 %)
    xf: freq = 39.81 Hz      (36 %), step = 14.69 Hz        (2 %)
    xf: freq = 63.1 Hz       (38 %), step = 23.29 Hz        (2 %)
    xf: freq = 100 Hz        (40 %), step = 36.9 Hz         (2 %)
    xf: freq = 158.5 Hz      (42 %), step = 58.49 Hz        (2 %)
    xf: freq = 251.2 Hz      (44 %), step = 92.7 Hz         (2 %)
    xf: freq = 398.1 Hz      (46 %), step = 146.9 Hz        (2 %)
    xf: freq = 631 Hz        (48 %), step = 232.9 Hz        (2 %)
    xf: freq = 1 kHz         (50 %), step = 369 Hz          (2 %)
    xf: freq = 1.585 kHz     (52 %), step = 584.9 Hz        (2 %)
    xf: freq = 2.512 kHz     (54 %), step = 927 Hz          (2 %)
    xf: freq = 3.981 kHz     (56 %), step = 1.469 kHz       (2 %)
    xf: freq = 6.31 kHz      (58 %), step = 2.329 kHz       (2 %)
    xf: freq = 10 kHz        (60 %), step = 3.69 kHz        (2 %)
    xf: freq = 15.85 kHz     (62 %), step = 5.849 kHz       (2 %)
    xf: freq = 25.12 kHz     (64 %), step = 9.27 kHz        (2 %)
    xf: freq = 39.81 kHz     (66 %), step = 14.69 kHz       (2 %)
    xf: freq = 63.1 kHz      (68 %), step = 23.29 kHz       (2 %)
    xf: freq = 100 kHz       (70 %), step = 36.9 kHz        (2 %)
    xf: freq = 158.5 kHz     (72 %), step = 58.49 kHz       (2 %)
    xf: freq = 251.2 kHz     (74 %), step = 92.7 kHz        (2 %)
    xf: freq = 398.1 kHz     (76 %), step = 146.9 kHz       (2 %)
    xf: freq = 631 kHz       (78 %), step = 232.9 kHz       (2 %)
    xf: freq = 1 MHz         (80 %), step = 369 kHz         (2 %)
    xf: freq = 1.585 MHz     (82 %), step = 584.9 kHz       (2 %)
    xf: freq = 2.512 MHz     (84 %), step = 927 kHz         (2 %)
    xf: freq = 3.981 MHz     (86 %), step = 1.469 MHz       (2 %)
    xf: freq = 6.31 MHz      (88 %), step = 2.329 MHz       (2 %)
    xf: freq = 10 MHz        (90 %), step = 3.69 MHz        (2 %)
    xf: freq = 15.85 MHz     (92 %), step = 5.849 MHz       (2 %)
    xf: freq = 25.12 MHz     (94 %), step = 9.27 MHz        (2 %)
    xf: freq = 39.81 MHz     (96 %), step = 14.69 MHz       (2 %)
    xf: freq = 63.1 MHz      (98 %), step = 23.29 MHz       (2 %)
    xf: freq = 100 MHz      (100 %), step = 36.9 MHz        (2 %)
Accumulated DC solution time =            0 s.
Intrinsic xf analysis time =              8.46219 ms.
Total time required for xf analysis `xf': CPU = 7.9 ms, elapsed = 8.75497 ms, util. = 90.2%.
Time accumulated: CPU = 800.333 ms, elapsed = 1.42292 s.
Peak resident memory used = 202 Mbytes.


Notice from spectre during XF analysis `xf', during Monte Carlo analysis `mc1'.
    34 warnings suppressed.

modelParameter: writing model parameter values to rawfile.

Opening the PSF file ../psf/mc1_separate/032/modelParameter.info ...
element: writing instance parameter values to rawfile.

Opening the PSF file ../psf/mc1_separate/032/element.info ...
outputParameter: writing output parameter values to rawfile.

Opening the PSF file ../psf/mc1_separate/032/outputParameter.info ...
designParamVals: writing netlist parameters to rawfile.

Opening the PSFASCII file ../psf/mc1_separate/032/designParamVals.info ...
primitives: writing primitives to rawfile.

Opening the PSFASCII file ../psf/mc1_separate/032/primitives.info.primitives ...
subckts: writing subcircuits to rawfile.

Opening the PSFASCII file ../psf/mc1_separate/032/subckts.info.subckts ...
    mc1: iteration = 32          (41.7 %), step = 1            (8.33 %)
33  50.00% 

*****************************************************************************************
* 
* INFO: AMS_processOption = C35B4C3
* 
* INFO: Valid Modules  PIP VG5 HIRES
* 
*****************************************************************************************


***********************************************************
Transfer Function Analysis `xf': freq = (10 mHz -> 100 MHz)
***********************************************************

Opening the PSF file ../psf/mc1_separate/033/xf.xf ...

Notice from spectre at freq = 0 Hz during DC analysis, during XF analysis `xf', during Monte Carlo analysis `mc1'.
    Bad pivoting is found during DC analysis. Option dc_pivot_check=yes is recommended for possible improvement of convergence.
Warning from spectre at freq = 0 Hz during check, during DC analysis, during XF analysis `xf', during Monte Carlo analysis `mc1'.
    WARNING (CMI-2943): Parameter checks have been ignored because the valid value for parameter 'trise' could not be found in 'C1'.
    WARNING (CMI-2943): Parameter checks have been ignored because the valid value for parameter 'trise' could not be found in 'I0.R2.CM'.
    WARNING (CMI-2943): Parameter checks have been ignored because the valid value for parameter 'trise' could not be found in 'I0.R2.CS1'.
    WARNING (CMI-2943): Parameter checks have been ignored because the valid value for parameter 'trise' could not be found in 'I0.R2.CS0'.
    WARNING (CMI-2943): Parameter checks have been ignored because the valid value for parameter 'trise' could not be found in 'I0.C8<3>.C1'.
        Further occurrences of this warning will be suppressed.

Convergence achieved in 31 iterations.
DC simulation time: CPU = 3.053 ms, elapsed = 3.05319 ms.
    xf: freq = 25.12 mHz      (4 %), step = 9.27 mHz        (2 %)
    xf: freq = 39.81 mHz      (6 %), step = 14.69 mHz       (2 %)
    xf: freq = 63.1 mHz       (8 %), step = 23.29 mHz       (2 %)
    xf: freq = 100 mHz       (10 %), step = 36.9 mHz        (2 %)
    xf: freq = 158.5 mHz     (12 %), step = 58.49 mHz       (2 %)
    xf: freq = 251.2 mHz     (14 %), step = 92.7 mHz        (2 %)
    xf: freq = 398.1 mHz     (16 %), step = 146.9 mHz       (2 %)
    xf: freq = 631 mHz       (18 %), step = 232.9 mHz       (2 %)
    xf: freq = 1 Hz          (20 %), step = 369 mHz         (2 %)
    xf: freq = 1.585 Hz      (22 %), step = 584.9 mHz       (2 %)
    xf: freq = 2.512 Hz      (24 %), step = 927 mHz         (2 %)
    xf: freq = 3.981 Hz      (26 %), step = 1.469 Hz        (2 %)
    xf: freq = 6.31 Hz       (28 %), step = 2.329 Hz        (2 %)
    xf: freq = 10 Hz         (30 %), step = 3.69 Hz         (2 %)
    xf: freq = 15.85 Hz      (32 %), step = 5.849 Hz        (2 %)
    xf: freq = 25.12 Hz      (34 %), step = 9.27 Hz         (2 %)
    xf: freq = 39.81 Hz      (36 %), step = 14.69 Hz        (2 %)
    xf: freq = 63.1 Hz       (38 %), step = 23.29 Hz        (2 %)
    xf: freq = 100 Hz        (40 %), step = 36.9 Hz         (2 %)
    xf: freq = 158.5 Hz      (42 %), step = 58.49 Hz        (2 %)
    xf: freq = 251.2 Hz      (44 %), step = 92.7 Hz         (2 %)
    xf: freq = 398.1 Hz      (46 %), step = 146.9 Hz        (2 %)
    xf: freq = 631 Hz        (48 %), step = 232.9 Hz        (2 %)
    xf: freq = 1 kHz         (50 %), step = 369 Hz          (2 %)
    xf: freq = 1.585 kHz     (52 %), step = 584.9 Hz        (2 %)
    xf: freq = 2.512 kHz     (54 %), step = 927 Hz          (2 %)
    xf: freq = 3.981 kHz     (56 %), step = 1.469 kHz       (2 %)
    xf: freq = 6.31 kHz      (58 %), step = 2.329 kHz       (2 %)
    xf: freq = 10 kHz        (60 %), step = 3.69 kHz        (2 %)
    xf: freq = 15.85 kHz     (62 %), step = 5.849 kHz       (2 %)
    xf: freq = 25.12 kHz     (64 %), step = 9.27 kHz        (2 %)
    xf: freq = 39.81 kHz     (66 %), step = 14.69 kHz       (2 %)
    xf: freq = 63.1 kHz      (68 %), step = 23.29 kHz       (2 %)
    xf: freq = 100 kHz       (70 %), step = 36.9 kHz        (2 %)
    xf: freq = 158.5 kHz     (72 %), step = 58.49 kHz       (2 %)
    xf: freq = 251.2 kHz     (74 %), step = 92.7 kHz        (2 %)
    xf: freq = 398.1 kHz     (76 %), step = 146.9 kHz       (2 %)
    xf: freq = 631 kHz       (78 %), step = 232.9 kHz       (2 %)
    xf: freq = 1 MHz         (80 %), step = 369 kHz         (2 %)
    xf: freq = 1.585 MHz     (82 %), step = 584.9 kHz       (2 %)
    xf: freq = 2.512 MHz     (84 %), step = 927 kHz         (2 %)
    xf: freq = 3.981 MHz     (86 %), step = 1.469 MHz       (2 %)
    xf: freq = 6.31 MHz      (88 %), step = 2.329 MHz       (2 %)
    xf: freq = 10 MHz        (90 %), step = 3.69 MHz        (2 %)
    xf: freq = 15.85 MHz     (92 %), step = 5.849 MHz       (2 %)
    xf: freq = 25.12 MHz     (94 %), step = 9.27 MHz        (2 %)
    xf: freq = 39.81 MHz     (96 %), step = 14.69 MHz       (2 %)
    xf: freq = 63.1 MHz      (98 %), step = 23.29 MHz       (2 %)
    xf: freq = 100 MHz      (100 %), step = 36.9 MHz        (2 %)
Accumulated DC solution time =            0 s.
Intrinsic xf analysis time =              9.10497 ms.
Total time required for xf analysis `xf': CPU = 8.527 ms, elapsed = 9.39393 ms, util. = 90.8%.
Time accumulated: CPU = 843.224 ms, elapsed = 1.47632 s.
Peak resident memory used = 202 Mbytes.


Notice from spectre during XF analysis `xf', during Monte Carlo analysis `mc1'.
    34 warnings suppressed.

modelParameter: writing model parameter values to rawfile.

Opening the PSF file ../psf/mc1_separate/033/modelParameter.info ...
element: writing instance parameter values to rawfile.

Opening the PSF file ../psf/mc1_separate/033/element.info ...
outputParameter: writing output parameter values to rawfile.

Opening the PSF file ../psf/mc1_separate/033/outputParameter.info ...
designParamVals: writing netlist parameters to rawfile.

Opening the PSFASCII file ../psf/mc1_separate/033/designParamVals.info ...
primitives: writing primitives to rawfile.

Opening the PSFASCII file ../psf/mc1_separate/033/primitives.info.primitives ...
subckts: writing subcircuits to rawfile.

Opening the PSFASCII file ../psf/mc1_separate/033/subckts.info.subckts ...
    mc1: iteration = 33            (50 %), step = 1            (8.33 %)
34  58.33% 

*****************************************************************************************
* 
* INFO: AMS_processOption = C35B4C3
* 
* INFO: Valid Modules  PIP VG5 HIRES
* 
*****************************************************************************************


***********************************************************
Transfer Function Analysis `xf': freq = (10 mHz -> 100 MHz)
***********************************************************

Opening the PSF file ../psf/mc1_separate/034/xf.xf ...

Warning from spectre at freq = 0 Hz during check, during DC analysis, during XF analysis `xf', during Monte Carlo analysis `mc1'.
    WARNING (CMI-2943): Parameter checks have been ignored because the valid value for parameter 'trise' could not be found in 'C1'.
    WARNING (CMI-2943): Parameter checks have been ignored because the valid value for parameter 'trise' could not be found in 'I0.R2.CM'.
    WARNING (CMI-2943): Parameter checks have been ignored because the valid value for parameter 'trise' could not be found in 'I0.R2.CS1'.
    WARNING (CMI-2943): Parameter checks have been ignored because the valid value for parameter 'trise' could not be found in 'I0.R2.CS0'.
    WARNING (CMI-2943): Parameter checks have been ignored because the valid value for parameter 'trise' could not be found in 'I0.C8<3>.C1'.
        Further occurrences of this warning will be suppressed.

Convergence achieved in 17 iterations.
DC simulation time: CPU = 2.077 ms, elapsed = 2.07686 ms.
    xf: freq = 25.12 mHz      (4 %), step = 9.27 mHz        (2 %)
    xf: freq = 39.81 mHz      (6 %), step = 14.69 mHz       (2 %)
    xf: freq = 63.1 mHz       (8 %), step = 23.29 mHz       (2 %)
    xf: freq = 100 mHz       (10 %), step = 36.9 mHz        (2 %)
    xf: freq = 158.5 mHz     (12 %), step = 58.49 mHz       (2 %)
    xf: freq = 251.2 mHz     (14 %), step = 92.7 mHz        (2 %)
    xf: freq = 398.1 mHz     (16 %), step = 146.9 mHz       (2 %)
    xf: freq = 631 mHz       (18 %), step = 232.9 mHz       (2 %)
    xf: freq = 1 Hz          (20 %), step = 369 mHz         (2 %)
    xf: freq = 1.585 Hz      (22 %), step = 584.9 mHz       (2 %)
    xf: freq = 2.512 Hz      (24 %), step = 927 mHz         (2 %)
    xf: freq = 3.981 Hz      (26 %), step = 1.469 Hz        (2 %)
    xf: freq = 6.31 Hz       (28 %), step = 2.329 Hz        (2 %)
    xf: freq = 10 Hz         (30 %), step = 3.69 Hz         (2 %)
    xf: freq = 15.85 Hz      (32 %), step = 5.849 Hz        (2 %)
    xf: freq = 25.12 Hz      (34 %), step = 9.27 Hz         (2 %)
    xf: freq = 39.81 Hz      (36 %), step = 14.69 Hz        (2 %)
    xf: freq = 63.1 Hz       (38 %), step = 23.29 Hz        (2 %)
    xf: freq = 100 Hz        (40 %), step = 36.9 Hz         (2 %)
    xf: freq = 158.5 Hz      (42 %), step = 58.49 Hz        (2 %)
    xf: freq = 251.2 Hz      (44 %), step = 92.7 Hz         (2 %)
    xf: freq = 398.1 Hz      (46 %), step = 146.9 Hz        (2 %)
    xf: freq = 631 Hz        (48 %), step = 232.9 Hz        (2 %)
    xf: freq = 1 kHz         (50 %), step = 369 Hz          (2 %)
    xf: freq = 1.585 kHz     (52 %), step = 584.9 Hz        (2 %)
    xf: freq = 2.512 kHz     (54 %), step = 927 Hz          (2 %)
    xf: freq = 3.981 kHz     (56 %), step = 1.469 kHz       (2 %)
    xf: freq = 6.31 kHz      (58 %), step = 2.329 kHz       (2 %)
    xf: freq = 10 kHz        (60 %), step = 3.69 kHz        (2 %)
    xf: freq = 15.85 kHz     (62 %), step = 5.849 kHz       (2 %)
    xf: freq = 25.12 kHz     (64 %), step = 9.27 kHz        (2 %)
    xf: freq = 39.81 kHz     (66 %), step = 14.69 kHz       (2 %)
    xf: freq = 63.1 kHz      (68 %), step = 23.29 kHz       (2 %)
    xf: freq = 100 kHz       (70 %), step = 36.9 kHz        (2 %)
    xf: freq = 158.5 kHz     (72 %), step = 58.49 kHz       (2 %)
    xf: freq = 251.2 kHz     (74 %), step = 92.7 kHz        (2 %)
    xf: freq = 398.1 kHz     (76 %), step = 146.9 kHz       (2 %)
    xf: freq = 631 kHz       (78 %), step = 232.9 kHz       (2 %)
    xf: freq = 1 MHz         (80 %), step = 369 kHz         (2 %)
    xf: freq = 1.585 MHz     (82 %), step = 584.9 kHz       (2 %)
    xf: freq = 2.512 MHz     (84 %), step = 927 kHz         (2 %)
    xf: freq = 3.981 MHz     (86 %), step = 1.469 MHz       (2 %)
    xf: freq = 6.31 MHz      (88 %), step = 2.329 MHz       (2 %)
    xf: freq = 10 MHz        (90 %), step = 3.69 MHz        (2 %)
    xf: freq = 15.85 MHz     (92 %), step = 5.849 MHz       (2 %)
    xf: freq = 25.12 MHz     (94 %), step = 9.27 MHz        (2 %)
    xf: freq = 39.81 MHz     (96 %), step = 14.69 MHz       (2 %)
    xf: freq = 63.1 MHz      (98 %), step = 23.29 MHz       (2 %)
    xf: freq = 100 MHz      (100 %), step = 36.9 MHz        (2 %)
Accumulated DC solution time =            1.90735 us.
Intrinsic xf analysis time =              8.40902 ms.
Total time required for xf analysis `xf': CPU = 7.926 ms, elapsed = 8.74591 ms, util. = 90.6%.
Time accumulated: CPU = 885.585 ms, elapsed = 1.52891 s.
Peak resident memory used = 202 Mbytes.


Notice from spectre during XF analysis `xf', during Monte Carlo analysis `mc1'.
    34 warnings suppressed.

modelParameter: writing model parameter values to rawfile.

Opening the PSF file ../psf/mc1_separate/034/modelParameter.info ...
element: writing instance parameter values to rawfile.

Opening the PSF file ../psf/mc1_separate/034/element.info ...
outputParameter: writing output parameter values to rawfile.

Opening the PSF file ../psf/mc1_separate/034/outputParameter.info ...
designParamVals: writing netlist parameters to rawfile.

Opening the PSFASCII file ../psf/mc1_separate/034/designParamVals.info ...
primitives: writing primitives to rawfile.

Opening the PSFASCII file ../psf/mc1_separate/034/primitives.info.primitives ...
subckts: writing subcircuits to rawfile.

Opening the PSFASCII file ../psf/mc1_separate/034/subckts.info.subckts ...
    mc1: iteration = 34          (58.3 %), step = 1            (8.33 %)
35  66.67% 

*****************************************************************************************
* 
* INFO: AMS_processOption = C35B4C3
* 
* INFO: Valid Modules  PIP VG5 HIRES
* 
*****************************************************************************************


***********************************************************
Transfer Function Analysis `xf': freq = (10 mHz -> 100 MHz)
***********************************************************

Opening the PSF file ../psf/mc1_separate/035/xf.xf ...

Notice from spectre at freq = 0 Hz during DC analysis, during XF analysis `xf', during Monte Carlo analysis `mc1'.
    Bad pivoting is found during DC analysis. Option dc_pivot_check=yes is recommended for possible improvement of convergence.
Warning from spectre at freq = 0 Hz during check, during DC analysis, during XF analysis `xf', during Monte Carlo analysis `mc1'.
    WARNING (CMI-2943): Parameter checks have been ignored because the valid value for parameter 'trise' could not be found in 'C1'.
    WARNING (CMI-2943): Parameter checks have been ignored because the valid value for parameter 'trise' could not be found in 'I0.R2.CM'.
    WARNING (CMI-2943): Parameter checks have been ignored because the valid value for parameter 'trise' could not be found in 'I0.R2.CS1'.
    WARNING (CMI-2943): Parameter checks have been ignored because the valid value for parameter 'trise' could not be found in 'I0.R2.CS0'.
    WARNING (CMI-2943): Parameter checks have been ignored because the valid value for parameter 'trise' could not be found in 'I0.C8<3>.C1'.
        Further occurrences of this warning will be suppressed.

Convergence achieved in 33 iterations.
DC simulation time: CPU = 3.217 ms, elapsed = 3.21817 ms.
    xf: freq = 25.12 mHz      (4 %), step = 9.27 mHz        (2 %)
    xf: freq = 39.81 mHz      (6 %), step = 14.69 mHz       (2 %)
    xf: freq = 63.1 mHz       (8 %), step = 23.29 mHz       (2 %)
    xf: freq = 100 mHz       (10 %), step = 36.9 mHz        (2 %)
    xf: freq = 158.5 mHz     (12 %), step = 58.49 mHz       (2 %)
    xf: freq = 251.2 mHz     (14 %), step = 92.7 mHz        (2 %)
    xf: freq = 398.1 mHz     (16 %), step = 146.9 mHz       (2 %)
    xf: freq = 631 mHz       (18 %), step = 232.9 mHz       (2 %)
    xf: freq = 1 Hz          (20 %), step = 369 mHz         (2 %)
    xf: freq = 1.585 Hz      (22 %), step = 584.9 mHz       (2 %)
    xf: freq = 2.512 Hz      (24 %), step = 927 mHz         (2 %)
    xf: freq = 3.981 Hz      (26 %), step = 1.469 Hz        (2 %)
    xf: freq = 6.31 Hz       (28 %), step = 2.329 Hz        (2 %)
    xf: freq = 10 Hz         (30 %), step = 3.69 Hz         (2 %)
    xf: freq = 15.85 Hz      (32 %), step = 5.849 Hz        (2 %)
    xf: freq = 25.12 Hz      (34 %), step = 9.27 Hz         (2 %)
    xf: freq = 39.81 Hz      (36 %), step = 14.69 Hz        (2 %)
    xf: freq = 63.1 Hz       (38 %), step = 23.29 Hz        (2 %)
    xf: freq = 100 Hz        (40 %), step = 36.9 Hz         (2 %)
    xf: freq = 158.5 Hz      (42 %), step = 58.49 Hz        (2 %)
    xf: freq = 251.2 Hz      (44 %), step = 92.7 Hz         (2 %)
    xf: freq = 398.1 Hz      (46 %), step = 146.9 Hz        (2 %)
    xf: freq = 631 Hz        (48 %), step = 232.9 Hz        (2 %)
    xf: freq = 1 kHz         (50 %), step = 369 Hz          (2 %)
    xf: freq = 1.585 kHz     (52 %), step = 584.9 Hz        (2 %)
    xf: freq = 2.512 kHz     (54 %), step = 927 Hz          (2 %)
    xf: freq = 3.981 kHz     (56 %), step = 1.469 kHz       (2 %)
    xf: freq = 6.31 kHz      (58 %), step = 2.329 kHz       (2 %)
    xf: freq = 10 kHz        (60 %), step = 3.69 kHz        (2 %)
    xf: freq = 15.85 kHz     (62 %), step = 5.849 kHz       (2 %)
    xf: freq = 25.12 kHz     (64 %), step = 9.27 kHz        (2 %)
    xf: freq = 39.81 kHz     (66 %), step = 14.69 kHz       (2 %)
    xf: freq = 63.1 kHz      (68 %), step = 23.29 kHz       (2 %)
    xf: freq = 100 kHz       (70 %), step = 36.9 kHz        (2 %)
    xf: freq = 158.5 kHz     (72 %), step = 58.49 kHz       (2 %)
    xf: freq = 251.2 kHz     (74 %), step = 92.7 kHz        (2 %)
    xf: freq = 398.1 kHz     (76 %), step = 146.9 kHz       (2 %)
    xf: freq = 631 kHz       (78 %), step = 232.9 kHz       (2 %)
    xf: freq = 1 MHz         (80 %), step = 369 kHz         (2 %)
    xf: freq = 1.585 MHz     (82 %), step = 584.9 kHz       (2 %)
    xf: freq = 2.512 MHz     (84 %), step = 927 kHz         (2 %)
    xf: freq = 3.981 MHz     (86 %), step = 1.469 MHz       (2 %)
    xf: freq = 6.31 MHz      (88 %), step = 2.329 MHz       (2 %)
    xf: freq = 10 MHz        (90 %), step = 3.69 MHz        (2 %)
    xf: freq = 15.85 MHz     (92 %), step = 5.849 MHz       (2 %)
    xf: freq = 25.12 MHz     (94 %), step = 9.27 MHz        (2 %)
    xf: freq = 39.81 MHz     (96 %), step = 14.69 MHz       (2 %)
    xf: freq = 63.1 MHz      (98 %), step = 23.29 MHz       (2 %)
    xf: freq = 100 MHz      (100 %), step = 36.9 MHz        (2 %)
Accumulated DC solution time =            953.674 ns.
Intrinsic xf analysis time =              9.17101 ms.
Total time required for xf analysis `xf': CPU = 8.693 ms, elapsed = 9.45306 ms, util. = 92%.
Time accumulated: CPU = 928.049 ms, elapsed = 1.58063 s.
Peak resident memory used = 202 Mbytes.


Notice from spectre during XF analysis `xf', during Monte Carlo analysis `mc1'.
    34 warnings suppressed.

modelParameter: writing model parameter values to rawfile.

Opening the PSF file ../psf/mc1_separate/035/modelParameter.info ...
element: writing instance parameter values to rawfile.

Opening the PSF file ../psf/mc1_separate/035/element.info ...
outputParameter: writing output parameter values to rawfile.

Opening the PSF file ../psf/mc1_separate/035/outputParameter.info ...
designParamVals: writing netlist parameters to rawfile.

Opening the PSFASCII file ../psf/mc1_separate/035/designParamVals.info ...
primitives: writing primitives to rawfile.

Opening the PSFASCII file ../psf/mc1_separate/035/primitives.info.primitives ...
subckts: writing subcircuits to rawfile.

Opening the PSFASCII file ../psf/mc1_separate/035/subckts.info.subckts ...
    mc1: iteration = 35          (66.7 %), step = 1            (8.33 %)
36  75.00% 

*****************************************************************************************
* 
* INFO: AMS_processOption = C35B4C3
* 
* INFO: Valid Modules  PIP VG5 HIRES
* 
*****************************************************************************************


***********************************************************
Transfer Function Analysis `xf': freq = (10 mHz -> 100 MHz)
***********************************************************

Opening the PSF file ../psf/mc1_separate/036/xf.xf ...

Warning from spectre at freq = 0 Hz during check, during DC analysis, during XF analysis `xf', during Monte Carlo analysis `mc1'.
    WARNING (CMI-2943): Parameter checks have been ignored because the valid value for parameter 'trise' could not be found in 'C1'.
    WARNING (CMI-2943): Parameter checks have been ignored because the valid value for parameter 'trise' could not be found in 'I0.R2.CM'.
    WARNING (CMI-2943): Parameter checks have been ignored because the valid value for parameter 'trise' could not be found in 'I0.R2.CS1'.
    WARNING (CMI-2943): Parameter checks have been ignored because the valid value for parameter 'trise' could not be found in 'I0.R2.CS0'.
    WARNING (CMI-2943): Parameter checks have been ignored because the valid value for parameter 'trise' could not be found in 'I0.C8<3>.C1'.
        Further occurrences of this warning will be suppressed.

Convergence achieved in 19 iterations.
DC simulation time: CPU = 2.234 ms, elapsed = 2.23398 ms.
    xf: freq = 25.12 mHz      (4 %), step = 9.27 mHz        (2 %)
    xf: freq = 39.81 mHz      (6 %), step = 14.69 mHz       (2 %)
    xf: freq = 63.1 mHz       (8 %), step = 23.29 mHz       (2 %)
    xf: freq = 100 mHz       (10 %), step = 36.9 mHz        (2 %)
    xf: freq = 158.5 mHz     (12 %), step = 58.49 mHz       (2 %)
    xf: freq = 251.2 mHz     (14 %), step = 92.7 mHz        (2 %)
    xf: freq = 398.1 mHz     (16 %), step = 146.9 mHz       (2 %)
    xf: freq = 631 mHz       (18 %), step = 232.9 mHz       (2 %)
    xf: freq = 1 Hz          (20 %), step = 369 mHz         (2 %)
    xf: freq = 1.585 Hz      (22 %), step = 584.9 mHz       (2 %)
    xf: freq = 2.512 Hz      (24 %), step = 927 mHz         (2 %)
    xf: freq = 3.981 Hz      (26 %), step = 1.469 Hz        (2 %)
    xf: freq = 6.31 Hz       (28 %), step = 2.329 Hz        (2 %)
    xf: freq = 10 Hz         (30 %), step = 3.69 Hz         (2 %)
    xf: freq = 15.85 Hz      (32 %), step = 5.849 Hz        (2 %)
    xf: freq = 25.12 Hz      (34 %), step = 9.27 Hz         (2 %)
    xf: freq = 39.81 Hz      (36 %), step = 14.69 Hz        (2 %)
    xf: freq = 63.1 Hz       (38 %), step = 23.29 Hz        (2 %)
    xf: freq = 100 Hz        (40 %), step = 36.9 Hz         (2 %)
    xf: freq = 158.5 Hz      (42 %), step = 58.49 Hz        (2 %)
    xf: freq = 251.2 Hz      (44 %), step = 92.7 Hz         (2 %)
    xf: freq = 398.1 Hz      (46 %), step = 146.9 Hz        (2 %)
    xf: freq = 631 Hz        (48 %), step = 232.9 Hz        (2 %)
    xf: freq = 1 kHz         (50 %), step = 369 Hz          (2 %)
    xf: freq = 1.585 kHz     (52 %), step = 584.9 Hz        (2 %)
    xf: freq = 2.512 kHz     (54 %), step = 927 Hz          (2 %)
    xf: freq = 3.981 kHz     (56 %), step = 1.469 kHz       (2 %)
    xf: freq = 6.31 kHz      (58 %), step = 2.329 kHz       (2 %)
    xf: freq = 10 kHz        (60 %), step = 3.69 kHz        (2 %)
    xf: freq = 15.85 kHz     (62 %), step = 5.849 kHz       (2 %)
    xf: freq = 25.12 kHz     (64 %), step = 9.27 kHz        (2 %)
    xf: freq = 39.81 kHz     (66 %), step = 14.69 kHz       (2 %)
    xf: freq = 63.1 kHz      (68 %), step = 23.29 kHz       (2 %)
    xf: freq = 100 kHz       (70 %), step = 36.9 kHz        (2 %)
    xf: freq = 158.5 kHz     (72 %), step = 58.49 kHz       (2 %)
    xf: freq = 251.2 kHz     (74 %), step = 92.7 kHz        (2 %)
    xf: freq = 398.1 kHz     (76 %), step = 146.9 kHz       (2 %)
    xf: freq = 631 kHz       (78 %), step = 232.9 kHz       (2 %)
    xf: freq = 1 MHz         (80 %), step = 369 kHz         (2 %)
    xf: freq = 1.585 MHz     (82 %), step = 584.9 kHz       (2 %)
    xf: freq = 2.512 MHz     (84 %), step = 927 kHz         (2 %)
    xf: freq = 3.981 MHz     (86 %), step = 1.469 MHz       (2 %)
    xf: freq = 6.31 MHz      (88 %), step = 2.329 MHz       (2 %)
    xf: freq = 10 MHz        (90 %), step = 3.69 MHz        (2 %)
    xf: freq = 15.85 MHz     (92 %), step = 5.849 MHz       (2 %)
    xf: freq = 25.12 MHz     (94 %), step = 9.27 MHz        (2 %)
    xf: freq = 39.81 MHz     (96 %), step = 14.69 MHz       (2 %)
    xf: freq = 63.1 MHz      (98 %), step = 23.29 MHz       (2 %)
    xf: freq = 100 MHz      (100 %), step = 36.9 MHz        (2 %)
Accumulated DC solution time =            0 s.
Intrinsic xf analysis time =              8.23712 ms.
Total time required for xf analysis `xf': CPU = 7.735 ms, elapsed = 8.54492 ms, util. = 90.5%.
Time accumulated: CPU = 970.543 ms, elapsed = 1.63324 s.
Peak resident memory used = 202 Mbytes.


Notice from spectre during XF analysis `xf', during Monte Carlo analysis `mc1'.
    34 warnings suppressed.

modelParameter: writing model parameter values to rawfile.

Opening the PSF file ../psf/mc1_separate/036/modelParameter.info ...
element: writing instance parameter values to rawfile.

Opening the PSF file ../psf/mc1_separate/036/element.info ...
outputParameter: writing output parameter values to rawfile.

Opening the PSF file ../psf/mc1_separate/036/outputParameter.info ...
designParamVals: writing netlist parameters to rawfile.

Opening the PSFASCII file ../psf/mc1_separate/036/designParamVals.info ...
primitives: writing primitives to rawfile.

Opening the PSFASCII file ../psf/mc1_separate/036/primitives.info.primitives ...
subckts: writing subcircuits to rawfile.

Opening the PSFASCII file ../psf/mc1_separate/036/subckts.info.subckts ...
    mc1: iteration = 36            (75 %), step = 1            (8.33 %)
37  83.33% 

*****************************************************************************************
* 
* INFO: AMS_processOption = C35B4C3
* 
* INFO: Valid Modules  PIP VG5 HIRES
* 
*****************************************************************************************


***********************************************************
Transfer Function Analysis `xf': freq = (10 mHz -> 100 MHz)
***********************************************************

Opening the PSF file ../psf/mc1_separate/037/xf.xf ...

Notice from spectre at freq = 0 Hz during DC analysis, during XF analysis `xf', during Monte Carlo analysis `mc1'.
    Bad pivoting is found during DC analysis. Option dc_pivot_check=yes is recommended for possible improvement of convergence.
Warning from spectre at freq = 0 Hz during check, during DC analysis, during XF analysis `xf', during Monte Carlo analysis `mc1'.
    WARNING (CMI-2943): Parameter checks have been ignored because the valid value for parameter 'trise' could not be found in 'C1'.
    WARNING (CMI-2943): Parameter checks have been ignored because the valid value for parameter 'trise' could not be found in 'I0.R2.CM'.
    WARNING (CMI-2943): Parameter checks have been ignored because the valid value for parameter 'trise' could not be found in 'I0.R2.CS1'.
    WARNING (CMI-2943): Parameter checks have been ignored because the valid value for parameter 'trise' could not be found in 'I0.R2.CS0'.
    WARNING (CMI-2943): Parameter checks have been ignored because the valid value for parameter 'trise' could not be found in 'I0.C8<3>.C1'.
        Further occurrences of this warning will be suppressed.

Convergence achieved in 18 iterations.
DC simulation time: CPU = 2.51 ms, elapsed = 2.51794 ms.
    xf: freq = 25.12 mHz      (4 %), step = 9.27 mHz        (2 %)
    xf: freq = 39.81 mHz      (6 %), step = 14.69 mHz       (2 %)
    xf: freq = 63.1 mHz       (8 %), step = 23.29 mHz       (2 %)
    xf: freq = 100 mHz       (10 %), step = 36.9 mHz        (2 %)
    xf: freq = 158.5 mHz     (12 %), step = 58.49 mHz       (2 %)
    xf: freq = 251.2 mHz     (14 %), step = 92.7 mHz        (2 %)
    xf: freq = 398.1 mHz     (16 %), step = 146.9 mHz       (2 %)
    xf: freq = 631 mHz       (18 %), step = 232.9 mHz       (2 %)
    xf: freq = 1 Hz          (20 %), step = 369 mHz         (2 %)
    xf: freq = 1.585 Hz      (22 %), step = 584.9 mHz       (2 %)
    xf: freq = 2.512 Hz      (24 %), step = 927 mHz         (2 %)
    xf: freq = 3.981 Hz      (26 %), step = 1.469 Hz        (2 %)
    xf: freq = 6.31 Hz       (28 %), step = 2.329 Hz        (2 %)
    xf: freq = 10 Hz         (30 %), step = 3.69 Hz         (2 %)
    xf: freq = 15.85 Hz      (32 %), step = 5.849 Hz        (2 %)
    xf: freq = 25.12 Hz      (34 %), step = 9.27 Hz         (2 %)
    xf: freq = 39.81 Hz      (36 %), step = 14.69 Hz        (2 %)
    xf: freq = 63.1 Hz       (38 %), step = 23.29 Hz        (2 %)
    xf: freq = 100 Hz        (40 %), step = 36.9 Hz         (2 %)
    xf: freq = 158.5 Hz      (42 %), step = 58.49 Hz        (2 %)
    xf: freq = 251.2 Hz      (44 %), step = 92.7 Hz         (2 %)
    xf: freq = 398.1 Hz      (46 %), step = 146.9 Hz        (2 %)
    xf: freq = 631 Hz        (48 %), step = 232.9 Hz        (2 %)
    xf: freq = 1 kHz         (50 %), step = 369 Hz          (2 %)
    xf: freq = 1.585 kHz     (52 %), step = 584.9 Hz        (2 %)
    xf: freq = 2.512 kHz     (54 %), step = 927 Hz          (2 %)
    xf: freq = 3.981 kHz     (56 %), step = 1.469 kHz       (2 %)
    xf: freq = 6.31 kHz      (58 %), step = 2.329 kHz       (2 %)
    xf: freq = 10 kHz        (60 %), step = 3.69 kHz        (2 %)
    xf: freq = 15.85 kHz     (62 %), step = 5.849 kHz       (2 %)
    xf: freq = 25.12 kHz     (64 %), step = 9.27 kHz        (2 %)
    xf: freq = 39.81 kHz     (66 %), step = 14.69 kHz       (2 %)
    xf: freq = 63.1 kHz      (68 %), step = 23.29 kHz       (2 %)
    xf: freq = 100 kHz       (70 %), step = 36.9 kHz        (2 %)
    xf: freq = 158.5 kHz     (72 %), step = 58.49 kHz       (2 %)
    xf: freq = 251.2 kHz     (74 %), step = 92.7 kHz        (2 %)
    xf: freq = 398.1 kHz     (76 %), step = 146.9 kHz       (2 %)
    xf: freq = 631 kHz       (78 %), step = 232.9 kHz       (2 %)
    xf: freq = 1 MHz         (80 %), step = 369 kHz         (2 %)
    xf: freq = 1.585 MHz     (82 %), step = 584.9 kHz       (2 %)
    xf: freq = 2.512 MHz     (84 %), step = 927 kHz         (2 %)
    xf: freq = 3.981 MHz     (86 %), step = 1.469 MHz       (2 %)
    xf: freq = 6.31 MHz      (88 %), step = 2.329 MHz       (2 %)
    xf: freq = 10 MHz        (90 %), step = 3.69 MHz        (2 %)
    xf: freq = 15.85 MHz     (92 %), step = 5.849 MHz       (2 %)
    xf: freq = 25.12 MHz     (94 %), step = 9.27 MHz        (2 %)
    xf: freq = 39.81 MHz     (96 %), step = 14.69 MHz       (2 %)
    xf: freq = 63.1 MHz      (98 %), step = 23.29 MHz       (2 %)
    xf: freq = 100 MHz      (100 %), step = 36.9 MHz        (2 %)
Accumulated DC solution time =            1.19209 us.
Intrinsic xf analysis time =              9.21178 ms.
Total time required for xf analysis `xf': CPU = 8.903 ms, elapsed = 9.78494 ms, util. = 91%.
Time accumulated: CPU = 1.01798 s, elapsed = 1.69106 s.
Peak resident memory used = 202 Mbytes.


Notice from spectre during XF analysis `xf', during Monte Carlo analysis `mc1'.
    34 warnings suppressed.

modelParameter: writing model parameter values to rawfile.

Opening the PSF file ../psf/mc1_separate/037/modelParameter.info ...
element: writing instance parameter values to rawfile.

Opening the PSF file ../psf/mc1_separate/037/element.info ...
outputParameter: writing output parameter values to rawfile.

Opening the PSF file ../psf/mc1_separate/037/outputParameter.info ...
designParamVals: writing netlist parameters to rawfile.

Opening the PSFASCII file ../psf/mc1_separate/037/designParamVals.info ...
primitives: writing primitives to rawfile.

Opening the PSFASCII file ../psf/mc1_separate/037/primitives.info.primitives ...
subckts: writing subcircuits to rawfile.

Opening the PSFASCII file ../psf/mc1_separate/037/subckts.info.subckts ...
    mc1: iteration = 37          (83.3 %), step = 1            (8.33 %)
38  91.67% 

*****************************************************************************************
* 
* INFO: AMS_processOption = C35B4C3
* 
* INFO: Valid Modules  PIP VG5 HIRES
* 
*****************************************************************************************


***********************************************************
Transfer Function Analysis `xf': freq = (10 mHz -> 100 MHz)
***********************************************************

Opening the PSF file ../psf/mc1_separate/038/xf.xf ...

Notice from spectre at freq = 0 Hz during DC analysis, during XF analysis `xf', during Monte Carlo analysis `mc1'.
    Bad pivoting is found during DC analysis. Option dc_pivot_check=yes is recommended for possible improvement of convergence.
Warning from spectre at freq = 0 Hz during check, during DC analysis, during XF analysis `xf', during Monte Carlo analysis `mc1'.
    WARNING (CMI-2943): Parameter checks have been ignored because the valid value for parameter 'trise' could not be found in 'C1'.
    WARNING (CMI-2943): Parameter checks have been ignored because the valid value for parameter 'trise' could not be found in 'I0.R2.CM'.
    WARNING (CMI-2943): Parameter checks have been ignored because the valid value for parameter 'trise' could not be found in 'I0.R2.CS1'.
    WARNING (CMI-2943): Parameter checks have been ignored because the valid value for parameter 'trise' could not be found in 'I0.R2.CS0'.
    WARNING (CMI-2943): Parameter checks have been ignored because the valid value for parameter 'trise' could not be found in 'I0.C8<3>.C1'.
        Further occurrences of this warning will be suppressed.

Convergence achieved in 19 iterations.
DC simulation time: CPU = 2.227 ms, elapsed = 2.22802 ms.
    xf: freq = 25.12 mHz      (4 %), step = 9.27 mHz        (2 %)
    xf: freq = 39.81 mHz      (6 %), step = 14.69 mHz       (2 %)
    xf: freq = 63.1 mHz       (8 %), step = 23.29 mHz       (2 %)
    xf: freq = 100 mHz       (10 %), step = 36.9 mHz        (2 %)
    xf: freq = 158.5 mHz     (12 %), step = 58.49 mHz       (2 %)
    xf: freq = 251.2 mHz     (14 %), step = 92.7 mHz        (2 %)
    xf: freq = 398.1 mHz     (16 %), step = 146.9 mHz       (2 %)
    xf: freq = 631 mHz       (18 %), step = 232.9 mHz       (2 %)
    xf: freq = 1 Hz          (20 %), step = 369 mHz         (2 %)
    xf: freq = 1.585 Hz      (22 %), step = 584.9 mHz       (2 %)
    xf: freq = 2.512 Hz      (24 %), step = 927 mHz         (2 %)
    xf: freq = 3.981 Hz      (26 %), step = 1.469 Hz        (2 %)
    xf: freq = 6.31 Hz       (28 %), step = 2.329 Hz        (2 %)
    xf: freq = 10 Hz         (30 %), step = 3.69 Hz         (2 %)
    xf: freq = 15.85 Hz      (32 %), step = 5.849 Hz        (2 %)
    xf: freq = 25.12 Hz      (34 %), step = 9.27 Hz         (2 %)
    xf: freq = 39.81 Hz      (36 %), step = 14.69 Hz        (2 %)
    xf: freq = 63.1 Hz       (38 %), step = 23.29 Hz        (2 %)
    xf: freq = 100 Hz        (40 %), step = 36.9 Hz         (2 %)
    xf: freq = 158.5 Hz      (42 %), step = 58.49 Hz        (2 %)
    xf: freq = 251.2 Hz      (44 %), step = 92.7 Hz         (2 %)
    xf: freq = 398.1 Hz      (46 %), step = 146.9 Hz        (2 %)
    xf: freq = 631 Hz        (48 %), step = 232.9 Hz        (2 %)
    xf: freq = 1 kHz         (50 %), step = 369 Hz          (2 %)
    xf: freq = 1.585 kHz     (52 %), step = 584.9 Hz        (2 %)
    xf: freq = 2.512 kHz     (54 %), step = 927 Hz          (2 %)
    xf: freq = 3.981 kHz     (56 %), step = 1.469 kHz       (2 %)
    xf: freq = 6.31 kHz      (58 %), step = 2.329 kHz       (2 %)
    xf: freq = 10 kHz        (60 %), step = 3.69 kHz        (2 %)
    xf: freq = 15.85 kHz     (62 %), step = 5.849 kHz       (2 %)
    xf: freq = 25.12 kHz     (64 %), step = 9.27 kHz        (2 %)
    xf: freq = 39.81 kHz     (66 %), step = 14.69 kHz       (2 %)
    xf: freq = 63.1 kHz      (68 %), step = 23.29 kHz       (2 %)
    xf: freq = 100 kHz       (70 %), step = 36.9 kHz        (2 %)
    xf: freq = 158.5 kHz     (72 %), step = 58.49 kHz       (2 %)
    xf: freq = 251.2 kHz     (74 %), step = 92.7 kHz        (2 %)
    xf: freq = 398.1 kHz     (76 %), step = 146.9 kHz       (2 %)
    xf: freq = 631 kHz       (78 %), step = 232.9 kHz       (2 %)
    xf: freq = 1 MHz         (80 %), step = 369 kHz         (2 %)
    xf: freq = 1.585 MHz     (82 %), step = 584.9 kHz       (2 %)
    xf: freq = 2.512 MHz     (84 %), step = 927 kHz         (2 %)
    xf: freq = 3.981 MHz     (86 %), step = 1.469 MHz       (2 %)
    xf: freq = 6.31 MHz      (88 %), step = 2.329 MHz       (2 %)
    xf: freq = 10 MHz        (90 %), step = 3.69 MHz        (2 %)
    xf: freq = 15.85 MHz     (92 %), step = 5.849 MHz       (2 %)
    xf: freq = 25.12 MHz     (94 %), step = 9.27 MHz        (2 %)
    xf: freq = 39.81 MHz     (96 %), step = 14.69 MHz       (2 %)
    xf: freq = 63.1 MHz      (98 %), step = 23.29 MHz       (2 %)
    xf: freq = 100 MHz      (100 %), step = 36.9 MHz        (2 %)
Accumulated DC solution time =            0 s.
Intrinsic xf analysis time =              8.18586 ms.
Total time required for xf analysis `xf': CPU = 7.871 ms, elapsed = 8.51798 ms, util. = 92.4%.
Time accumulated: CPU = 1.06325 s, elapsed = 1.74587 s.
Peak resident memory used = 202 Mbytes.


Notice from spectre during XF analysis `xf', during Monte Carlo analysis `mc1'.
    34 warnings suppressed.

modelParameter: writing model parameter values to rawfile.

Opening the PSF file ../psf/mc1_separate/038/modelParameter.info ...
element: writing instance parameter values to rawfile.

Opening the PSF file ../psf/mc1_separate/038/element.info ...
outputParameter: writing output parameter values to rawfile.

Opening the PSF file ../psf/mc1_separate/038/outputParameter.info ...
designParamVals: writing netlist parameters to rawfile.

Opening the PSFASCII file ../psf/mc1_separate/038/designParamVals.info ...
primitives: writing primitives to rawfile.

Opening the PSFASCII file ../psf/mc1_separate/038/primitives.info.primitives ...
subckts: writing subcircuits to rawfile.

Opening the PSFASCII file ../psf/mc1_separate/038/subckts.info.subckts ...
    mc1: iteration = 38          (91.7 %), step = 1            (8.33 %)
39 100.00% 

*****************************************************************************************
* 
* INFO: AMS_processOption = C35B4C3
* 
* INFO: Valid Modules  PIP VG5 HIRES
* 
*****************************************************************************************


***********************************************************
Transfer Function Analysis `xf': freq = (10 mHz -> 100 MHz)
***********************************************************

Opening the PSF file ../psf/mc1_separate/039/xf.xf ...

Warning from spectre at freq = 0 Hz during check, during DC analysis, during XF analysis `xf', during Monte Carlo analysis `mc1'.
    WARNING (CMI-2943): Parameter checks have been ignored because the valid value for parameter 'trise' could not be found in 'C1'.
    WARNING (CMI-2943): Parameter checks have been ignored because the valid value for parameter 'trise' could not be found in 'I0.R2.CM'.
    WARNING (CMI-2943): Parameter checks have been ignored because the valid value for parameter 'trise' could not be found in 'I0.R2.CS1'.
    WARNING (CMI-2943): Parameter checks have been ignored because the valid value for parameter 'trise' could not be found in 'I0.R2.CS0'.
    WARNING (CMI-2943): Parameter checks have been ignored because the valid value for parameter 'trise' could not be found in 'I0.C8<3>.C1'.
        Further occurrences of this warning will be suppressed.

Convergence achieved in 19 iterations.
DC simulation time: CPU = 2.172 ms, elapsed = 2.17319 ms.
    xf: freq = 25.12 mHz      (4 %), step = 9.27 mHz        (2 %)
    xf: freq = 39.81 mHz      (6 %), step = 14.69 mHz       (2 %)
    xf: freq = 63.1 mHz       (8 %), step = 23.29 mHz       (2 %)
    xf: freq = 100 mHz       (10 %), step = 36.9 mHz        (2 %)
    xf: freq = 158.5 mHz     (12 %), step = 58.49 mHz       (2 %)
    xf: freq = 251.2 mHz     (14 %), step = 92.7 mHz        (2 %)
    xf: freq = 398.1 mHz     (16 %), step = 146.9 mHz       (2 %)
    xf: freq = 631 mHz       (18 %), step = 232.9 mHz       (2 %)
    xf: freq = 1 Hz          (20 %), step = 369 mHz         (2 %)
    xf: freq = 1.585 Hz      (22 %), step = 584.9 mHz       (2 %)
    xf: freq = 2.512 Hz      (24 %), step = 927 mHz         (2 %)
    xf: freq = 3.981 Hz      (26 %), step = 1.469 Hz        (2 %)
    xf: freq = 6.31 Hz       (28 %), step = 2.329 Hz        (2 %)
    xf: freq = 10 Hz         (30 %), step = 3.69 Hz         (2 %)
    xf: freq = 15.85 Hz      (32 %), step = 5.849 Hz        (2 %)
    xf: freq = 25.12 Hz      (34 %), step = 9.27 Hz         (2 %)
    xf: freq = 39.81 Hz      (36 %), step = 14.69 Hz        (2 %)
    xf: freq = 63.1 Hz       (38 %), step = 23.29 Hz        (2 %)
    xf: freq = 100 Hz        (40 %), step = 36.9 Hz         (2 %)
    xf: freq = 158.5 Hz      (42 %), step = 58.49 Hz        (2 %)
    xf: freq = 251.2 Hz      (44 %), step = 92.7 Hz         (2 %)
    xf: freq = 398.1 Hz      (46 %), step = 146.9 Hz        (2 %)
    xf: freq = 631 Hz        (48 %), step = 232.9 Hz        (2 %)
    xf: freq = 1 kHz         (50 %), step = 369 Hz          (2 %)
    xf: freq = 1.585 kHz     (52 %), step = 584.9 Hz        (2 %)
    xf: freq = 2.512 kHz     (54 %), step = 927 Hz          (2 %)
    xf: freq = 3.981 kHz     (56 %), step = 1.469 kHz       (2 %)
    xf: freq = 6.31 kHz      (58 %), step = 2.329 kHz       (2 %)
    xf: freq = 10 kHz        (60 %), step = 3.69 kHz        (2 %)
    xf: freq = 15.85 kHz     (62 %), step = 5.849 kHz       (2 %)
    xf: freq = 25.12 kHz     (64 %), step = 9.27 kHz        (2 %)
    xf: freq = 39.81 kHz     (66 %), step = 14.69 kHz       (2 %)
    xf: freq = 63.1 kHz      (68 %), step = 23.29 kHz       (2 %)
    xf: freq = 100 kHz       (70 %), step = 36.9 kHz        (2 %)
    xf: freq = 158.5 kHz     (72 %), step = 58.49 kHz       (2 %)
    xf: freq = 251.2 kHz     (74 %), step = 92.7 kHz        (2 %)
    xf: freq = 398.1 kHz     (76 %), step = 146.9 kHz       (2 %)
    xf: freq = 631 kHz       (78 %), step = 232.9 kHz       (2 %)
    xf: freq = 1 MHz         (80 %), step = 369 kHz         (2 %)
    xf: freq = 1.585 MHz     (82 %), step = 584.9 kHz       (2 %)
    xf: freq = 2.512 MHz     (84 %), step = 927 kHz         (2 %)
    xf: freq = 3.981 MHz     (86 %), step = 1.469 MHz       (2 %)
    xf: freq = 6.31 MHz      (88 %), step = 2.329 MHz       (2 %)
    xf: freq = 10 MHz        (90 %), step = 3.69 MHz        (2 %)
    xf: freq = 15.85 MHz     (92 %), step = 5.849 MHz       (2 %)
    xf: freq = 25.12 MHz     (94 %), step = 9.27 MHz        (2 %)
    xf: freq = 39.81 MHz     (96 %), step = 14.69 MHz       (2 %)
    xf: freq = 63.1 MHz      (98 %), step = 23.29 MHz       (2 %)
    xf: freq = 100 MHz      (100 %), step = 36.9 MHz        (2 %)
Accumulated DC solution time =            0 s.
Intrinsic xf analysis time =              8.0812 ms.
Total time required for xf analysis `xf': CPU = 7.694 ms, elapsed = 8.36706 ms, util. = 92%.
Time accumulated: CPU = 1.10586 s, elapsed = 1.79814 s.
Peak resident memory used = 202 Mbytes.


Notice from spectre during XF analysis `xf', during Monte Carlo analysis `mc1'.
    34 warnings suppressed.

modelParameter: writing model parameter values to rawfile.

Opening the PSF file ../psf/mc1_separate/039/modelParameter.info ...
element: writing instance parameter values to rawfile.

Opening the PSF file ../psf/mc1_separate/039/element.info ...
outputParameter: writing output parameter values to rawfile.

Opening the PSF file ../psf/mc1_separate/039/outputParameter.info ...
designParamVals: writing netlist parameters to rawfile.

Opening the PSFASCII file ../psf/mc1_separate/039/designParamVals.info ...
primitives: writing primitives to rawfile.

Opening the PSFASCII file ../psf/mc1_separate/039/primitives.info.primitives ...
subckts: writing subcircuits to rawfile.

Opening the PSFASCII file ../psf/mc1_separate/039/subckts.info.subckts ...
    mc1: iteration = 39           (100 %), step = 1            (8.33 %)
Total time required for montecarlo analysis `mc1': CPU = 628.573 ms, elapsed = 762.211 ms, util. = 82.5%.
Time accumulated: CPU = 1.12682 s, elapsed = 1.82892 s.
Peak resident memory used = 202 Mbytes.

Licensing Information:
Lic Summary:
[08:28:00.247499] Cdslmd servers:3000@lic08.ug.kth.se:29000@lic06.ug.kth.se
[08:28:00.247539] Feature usage summary:
[08:28:00.247545] Virtuoso_Multi_mode_Simulation


Aggregate audit (8:28:00 AM, Thur Apr 16, 2026):
Time used: CPU = 1.14 s, elapsed = 1.84 s, util. = 61.9%.
Time spent in licensing: elapsed = 28.4 ms.
Peak memory used = 204 Mbytes.
Simulation started at: 8:27:58 AM, Thur Apr 16, 2026, ended at: 8:28:00 AM, Thur Apr 16, 2026, with elapsed time (wall clock): 1.84 s.
spectre completes with 0 errors, 87 warnings, and 26 notices.
