
Spectre (R) Circuit Simulator
Version 24.1.0.288.isr5 64bit -- 3 Apr 2025
Copyright (C) 1989-2025 Cadence Design Systems, Inc. All rights reserved worldwide. Cadence and Spectre are registered trademarks of Cadence Design Systems, Inc. All others are the property of their respective holders.

Includes RSA BSAFE(R) Cryptographic or Security Protocol Software from RSA Security, Inc.

User: davidevi   Host: il2244vt26_davidevi   HostID: 11AC2C00   PID: 1042725
Memory  available: 3.0455 TB  physical: 3.2467 TB
Linux   : Rocky Linux release 8.10 (Green Obsidian)
CPU Type: Intel(R) Xeon(R) CPU E7-8857 v2 @ 3.00GHz
        Socket: Processors [Frequency]
        0:       0 [1200.0],  1 [2999.9],  2 [1200.0],  3 [2999.9],  4 [1200.0]
                 5 [1200.0],  6 [1200.0],  7 [1200.0],  8 [1200.0],  9 [1200.0]
                10 [1200.0], 11 [2999.9]
        1:      12 [1200.0], 13 [1300.0], 14 [2999.9], 15 [1200.0], 16 [2500.0]
                17 [1200.0], 18 [1200.0], 19 [2999.9], 20 [3600.0], 21 [2900.0]
                22 [3000.0], 23 [1200.0]
        2:      24 [1200.0], 25 [2500.0], 26 [1200.0], 27 [2999.9], 28 [2600.0]
                29 [3600.0], 30 [2999.9], 31 [2999.9], 32 [1200.0], 33 [1200.0]
                34 [1200.0], 35 [1200.0]
        3:      36 [3600.0], 37 [1200.0], 38 [3200.0], 39 [2999.9], 40 [2600.0]
                41 [2500.0], 42 [1200.0], 43 [2500.0], 44 [2500.0], 45 [2999.9]
                46 [1400.0], 47 [1200.0]
        
System load averages (1min, 5min, 15min) : 17.7 %, 15.1 %, 15.1 %
HPC is enabled


Simulating `input.scs' on il2244vt26_davidevi at 9:02:18 AM, Thur Apr 16, 2026 (process id: 1042725).
Current working directory: /home/davidevi/Desktop/myproject/Sim/VGA/VGA_1_tb/adexl/results/data/Interactive.107/8/Linerity/netlist
Command line:
    /opt/tools/cadence/installs/SPECTRE241/tools/bin/spectre -64  \
        input.scs +escchars +log ../psf/spectre.out -format psfbin  \
        +rtsf -raw ../psf +aps +mt +lqtimeout 900 -maxw 5 -maxn 5  \
        +param /opt/pdk/ams/410/spectre/ams_range.lmts -env ade  \
        -ahdllibdir  \
        /home/davidevi/Desktop/myproject/Sim/VGA/VGA_1_tb/adexl/results/data/Interactive.107/sharedData/Job471/ahdl/input.ahdlSimDB  \
        +logstatus  \
        +adespetkn=0001089D13A302B663E41FB550AF0DF415A679A322D5069144BF588C12F604E07EF416DC01A319B562BB63D35FD9199045A346C475A521E363F949DA57C04F9270A179D15D9175FF34986BDD0AF002BA50FD7FD707E002A700AC1C841DF643EB0EA979D12FF874D3349879D118F874D334981031BD62D1495D780000364E

Simulation Id: mC8mhtWaU0tyt2D9
Licensing Information:
[09:02:18.121762] Configured Lic search path (24.01-s002): 3000@lic08.ug.kth.se:29000@lic06.ug.kth.se

Licensing Information:
[09:02:18.468467] Periodic Lic check successful

Loading /opt/tools/cadence/installs/SPECTRE241/tools.lnx86/cmi/lib/64bit/5.0/libinfineon_sh.so ...
Loading /opt/tools/cadence/installs/SPECTRE241/tools.lnx86/cmi/lib/64bit/5.0/libphilips_I_sh.so ...
Loading /opt/tools/cadence/installs/SPECTRE241/tools.lnx86/cmi/lib/64bit/5.0/libphilips_sh.so ...
Loading /opt/tools/cadence/installs/SPECTRE241/tools.lnx86/cmi/lib/64bit/5.0/libsparam_sh.so ...
Loading /opt/tools/cadence/installs/SPECTRE241/tools.lnx86/cmi/lib/64bit/5.0/libstmodels_sh.so ...

Warning from spectre.
    WARNING (SPECTRE-691): This CPU processor does not support x86 advanced vector extensions instructions. This may affect math operations and slow down the simulation.

Reading file:  /home/davidevi/Desktop/myproject/Sim/VGA/VGA_1_tb/adexl/results/data/Interactive.107/8/Linerity/netlist/input.scs
Reading file:  /opt/pdk/ams/410/spectre/ams_range.lmts

Warning from spectre during read of parameter soft limits file `/opt/pdk/ams/410/spectre/ams_range.lmts', during circuit read-in.
    WARNING (SPECTRE-8360): line 1511: `ac' is an undefined primitive device.
    WARNING (SPECTRE-8360): line 1512: `ac' is an undefined primitive device.
    WARNING (SPECTRE-8360): line 1513: `ac' is an undefined primitive device.
    WARNING (SPECTRE-8360): line 1514: `ac' is an undefined primitive device.
    WARNING (SPECTRE-8360): line 1515: `ac' is an undefined primitive device.
        Further occurrences of this warning will be suppressed.

Reading file:  /opt/tools/cadence/installs/SPECTRE241/tools.lnx86/spectre/etc/configs/spectre.cfg
Reading file:  /opt/pdk/ams/410/spectre/c35/soac/soac.scs
Reading file:  /opt/pdk/ams/410/spectre/c35/soac/processOption.scs
Reading file:  /opt/pdk/ams/410/spectre/c35/soac/process.scs
Reading file:  /opt/pdk/ams/410/spectre/c35/soac/soac.va

Warning from spectre during AHDL read-in.
    WARNING (VACOMP-2435): The environment variable CDS_AHDLCMI_ENABLE is no longer supported. Therefore, the simulator will use the default compiled C code flow.

Reading link:  /opt/tools/cadence/installs/SPECTRE241/tools.lnx86/spectre/etc/ahdl/constants.h
Reading file:  /opt/tools/cadence/installs/SPECTRE241/tools.lnx86/spectre/etc/ahdl/constants.vams
Reading link:  /opt/tools/cadence/installs/SPECTRE241/tools.lnx86/spectre/etc/ahdl/discipline.h
Reading file:  /opt/tools/cadence/installs/SPECTRE241/tools.lnx86/spectre/etc/ahdl/disciplines.vams
Reading file:  /opt/pdk/ams/410/spectre/c35/processOption/C35B4C3.scs
Reading file:  /opt/pdk/ams/410/spectre/c35/soac/cmos53.scs
Reading file:  /opt/pdk/ams/410/spectre/c35/soac/res.scs
Reading file:  /opt/pdk/ams/410/spectre/c35/soac/cap.scs
Reading file:  /opt/pdk/ams/410/spectre/c35/soac/bip.scs
Reading file:  /opt/pdk/ams/410/spectre/c35/soac/ind.scs
Reading file:  /opt/pdk/ams/410/spectre/c35/soac/esddiode.scs
Time for NDB Parsing: CPU = 171.007 ms, elapsed = 294.95 ms.
Time accumulated: CPU = 371.592 ms, elapsed = 294.952 ms.
Peak resident memory used = 175 Mbytes.

Existing shared object for module modn_ahdl is up to date.
Installed compiled interface for modn_ahdl.
Existing shared object for module modp_ahdl is up to date.
Installed compiled interface for modp_ahdl.
Existing shared object for module cpoly_ahdl is up to date.
Installed compiled interface for cpoly_ahdl.
Existing shared object for module rpolyh_ahdl is up to date.
Installed compiled interface for rpolyh_ahdl.
Existing shared object for module bsource_19b458 is up to date.
Installed compiled interface for bsource_19b458.
Time for Elaboration: CPU = 45.135 ms, elapsed = 47.7321 ms.
Time accumulated: CPU = 416.883 ms, elapsed = 342.839 ms.
Peak resident memory used = 188 Mbytes.


Notice from spectre during hierarchy flattening.
    The value 'psf' specified for the 'checklimitdest' option will no longer be supported in future releases. Use 'spectre -h' to see other recommended values for the 'checklimitdest' option.


*****************************************************************************************
* 
* INFO: AMS_processOption = C35B4C3
* 
* INFO: Valid Modules  PIP VG5 HIRES
* 
*****************************************************************************************


Time for EDB Visiting: CPU = 7.647 ms, elapsed = 7.6561 ms.
Time accumulated: CPU = 424.706 ms, elapsed = 350.668 ms.
Peak resident memory used = 190 Mbytes.

Loading /opt/tools/cadence/installs/SPECTRE241/tools.lnx86/mdl/lib/64bit/libSpectreEH_sh.so ...

Warning from spectre during initial setup.
    WARNING (SPECTRE-16460): SOAC_cvarm_vspsub:Specified subcircuit master `cvarm' was not found.
    WARNING (SPECTRE-16462): SOAC_cvarm_vspsub:Error in specification of subcircuit master. Assert is ignored.
    WARNING (SPECTRE-16460): SOAC_cvarm_vbs:Specified subcircuit master `cvarm' was not found.
    WARNING (SPECTRE-16462): SOAC_cvarm_vbs:Error in specification of subcircuit master. Assert is ignored.
    WARNING (SPECTRE-16460): SOAC_cvarm_vgb:Specified subcircuit master `cvarm' was not found.
    WARNING (SPECTRE-16462): SOAC_cvarm_vgb:Error in specification of subcircuit master. Assert is ignored.
    WARNING (SPECTRE-16460): SOAC_cvart_vspsub:Specified subcircuit master `cvart' was not found.
    WARNING (SPECTRE-16462): SOAC_cvart_vspsub:Error in specification of subcircuit master. Assert is ignored.
    WARNING (SPECTRE-16460): SOAC_cvart_vbs:Specified subcircuit master `cvart' was not found.
        Further occurrences of this warning will be suppressed.
    WARNING (SPECTRE-16462): SOAC_cvart_vbs:Error in specification of subcircuit master. Assert is ignored.
        Further occurrences of this warning will be suppressed.
Notice from spectre during topology check.
    Only one connection to the following 43 nodes:
        I0.MN6.psub!
        I0.MN5.psub!
        I0.MN4.psub!
        I0.MN3.psub!
        I0.MN2.psub!
        Further occurrences of this notice will be suppressed.
Notice from spectre during initial setup.
    Multithreading is disabled due to the size of the design being too small.


Netlist title:
        // Point Netlist Generated on: Apr 16 09:02:18 2026


Global user options:
         psfversion = 1.4.0
            vabstol = 1e-06
            iabstol = 1e-12
               temp = -40
           homotopy = 5
              limit = delta
         compatible = spice2
               gmin = 1e-12
             rforce = 1
           maxnotes = 5
           maxwarns = 5
             digits = 5
               cols = 80
             pivrel = 0.001
           sensfile = ../psf/sens.output
     checklimitdest = psf
     enable_pre_ver = yes
      ignorezerovar = yes
               save = allpub
             reltol = 0.0001
               tnom = 27
             scalem = 1
              scale = 1

Scoped user options:

Circuit inventory:
              nodes 88
            bsim3v3 35    
     bsource_19b458 2     
          capacitor 38    
         cpoly_ahdl 17    
            isource 1     
          modn_ahdl 19    
          modp_ahdl 16    
           resistor 1     
        rpolyh_ahdl 2     
            vsource 8     

Analysis and control statement inventory:
                 dc 1     
               info 8     
               tran 1     

Output statements:
             .probe 0     
           .measure 0     
               save 0     

Design checks inventory:
          paramtest 55    
             assert 175   


Notice from spectre during initial setup.
    APS enabled.
    1 notice suppressed.
    72 warnings suppressed.

Time for parsing: CPU = 18.327 ms, elapsed = 630.978 ms.
Time accumulated: CPU = 443.161 ms, elapsed = 981.773 ms.
Peak resident memory used = 197 Mbytes.

~~~~~~~~~~~~~~~~~~~~~~
Pre-Simulation Summary
~~~~~~~~~~~~~~~~~~~~~~
   -   (APS) Multi-threading. The recommended number of threads is 1, consider adding +mt=1 on command line.
~~~~~~~~~~~~~~~~~~~~~~

******************
DC Analysis `dcOp'
******************

Notice from spectre during DC analysis `dcOp'.
    No checklimit analysis defined for asserts. A default checklimit analysis 'SpectreChecklimitAnal' has been created with all asserts enabled.


Opening the PSF file ../psf/dcOp.dc ...
Important parameter values:
    reltol = 100e-06
    abstol(V) = 1 uV
    abstol(I) = 1 pA
    temp = -40 C
    tnom = 27 C
    tempeffects = all
    gmindc = 1 pS
    rabsshort = 1 mOhm

Notice from spectre during DC analysis `dcOp'.
    GminDC = 1 pS is large enough to noticeably affect the DC solution.
        dV(vout) = -223.746 uV
        Use the `gmin_check' option to eliminate or expand this report.
    Bad pivoting is found during DC analysis. Option dc_pivot_check=yes is recommended for possible improvement of convergence.
SOAC: I0.I1.MP0.soac_m1       modp V(D,S): LEAVING@  0us ;
SOAC: I0.I1.MP0.soac_m1       modp V(D,B): LEAVING@  0us ;
SOAC: I0.I2.MP0.soac_m1       modp V(D,S): LEAVING@  0us ;
SOAC: I0.I2.MP0.soac_m1       modp V(D,B): LEAVING@  0us ;
SOAC: I0.I3.MP0.soac_m1       modp V(D,S): LEAVING@  0us ;
SOAC: I0.I3.MP0.soac_m1       modp V(D,B): LEAVING@  0us ;
SOAC: I0.I5.MP0.soac_m1       modp V(D,S): LEAVING@  0us ;
SOAC: I0.I5.MP0.soac_m1       modp V(D,B): LEAVING@  0us ;

Maximum value achieved for any signal of each quantity: 
V: V(net2) = 3.63 V
I: I(V0:p) = 6.485 uA
Maximum value of each quantity, excluding Verilog-A modules or dangling current sources:
V: V(vout_filt) = 1.6 V
I: I(V0:p) = 6.485 uA

Warning from spectre during check, during DC analysis `dcOp'.
    WARNING (CMI-2943): Parameter checks have been ignored because the valid value for parameter 'trise' could not be found in 'C1'.
    WARNING (CMI-2943): Parameter checks have been ignored because the valid value for parameter 'trise' could not be found in 'I0.R2.CM'.
    WARNING (CMI-2943): Parameter checks have been ignored because the valid value for parameter 'trise' could not be found in 'I0.R2.CS1'.
    WARNING (CMI-2943): Parameter checks have been ignored because the valid value for parameter 'trise' could not be found in 'I0.R2.CS0'.
    WARNING (CMI-2943): Parameter checks have been ignored because the valid value for parameter 'trise' could not be found in 'I0.C3.C1'.
        Further occurrences of this warning will be suppressed.

Convergence achieved in 18 iterations.

Opening the PSF file ../psf/dcOpViolations.violations ...
DC simulation time: CPU = 90.479 ms, elapsed = 96.5519 ms.
Total time required for dc analysis `dcOp': CPU = 90.611 ms, elapsed = 96.668 ms, util. = 93.7%.
Time accumulated: CPU = 557.961 ms, elapsed = 1.10313 s.
Peak resident memory used = 205 Mbytes.


Notice from spectre.
    12 warnings suppressed.

dcOpInfo: writing operating point information to rawfile.

Opening the PSF file ../psf/dcOpInfo.info ...

************************************************
Transient Analysis `tran': time = (0 s -> 40 ms)
************************************************

Notice from spectre during IC analysis, during transient analysis `tran'.
    GminDC = 1 pS is large enough to noticeably affect the DC solution.
        dV(vout) = -223.746 uV
        Use the `gmin_check' option to eliminate or expand this report.
    Bad pivoting is found during DC analysis. Option dc_pivot_check=yes is recommended for possible improvement of convergence.
Warning from spectre during check, during IC analysis, during transient analysis `tran'.
    WARNING (CMI-2943): Parameter checks have been ignored because the valid value for parameter 'trise' could not be found in 'C1'.
    WARNING (CMI-2943): Parameter checks have been ignored because the valid value for parameter 'trise' could not be found in 'I0.R2.CM'.
    WARNING (CMI-2943): Parameter checks have been ignored because the valid value for parameter 'trise' could not be found in 'I0.R2.CS1'.
    WARNING (CMI-2943): Parameter checks have been ignored because the valid value for parameter 'trise' could not be found in 'I0.R2.CS0'.
    WARNING (CMI-2943): Parameter checks have been ignored because the valid value for parameter 'trise' could not be found in 'I0.C3.C1'.
        Further occurrences of this warning will be suppressed.

Convergence achieved in 2 iterations.
DC simulation time: CPU = 1.07 ms, elapsed = 1.07098 ms.

Opening the PSF file ../psf/tran.tran.tran ...
Important parameter values:
    start = 0 s
    outputstart = 0 s
    stop = 40 ms
    step = 40 us
    maxstep = 400 us
    ic = all
    useprevic = no
    skipdc = no
    reltol = 10e-06
    abstol(V) = 1 uV
    abstol(I) = 1 pA
    temp = -40 C
    tnom = 27 C
    tempeffects = all
    errpreset = conservative
    method = gear2only
    lteratio = 10
    relref = alllocal
    cmin = 0 F
    gmin = 1 pS
    rabsshort = 1 mOhm


Notice from spectre during transient analysis `tran'.
    Multithreading is disabled due to the size of the design being too small.


Output and IC/nodeset summary:
                 save   8       (current)
                 save   87      (voltage)

SOAC: I0.I1.MP0.soac_m1       modp V(D,S): LEAVING@  0us ;
SOAC: I0.I1.MP0.soac_m1       modp V(D,B): LEAVING@  0us ;
SOAC: I0.I2.MP0.soac_m1       modp V(D,S): LEAVING@  0us ;
SOAC: I0.I2.MP0.soac_m1       modp V(D,B): LEAVING@  0us ;
SOAC: I0.I3.MP0.soac_m1       modp V(D,S): LEAVING@  0us ;
SOAC: I0.I3.MP0.soac_m1       modp V(D,B): LEAVING@  0us ;
SOAC: I0.I5.MP0.soac_m1       modp V(D,S): LEAVING@  0us ;
SOAC: I0.I5.MP0.soac_m1       modp V(D,B): LEAVING@  0us ;
    tran: time = 1.032 ms    (2.58 %), step = 47.56 us     (119 m%)
    tran: time = 3.045 ms    (7.61 %), step = 46.73 us     (117 m%)
    tran: time = 5.012 ms    (12.5 %), step = 49.19 us     (123 m%)
    tran: time = 7.026 ms    (17.6 %), step = 48.02 us     (120 m%)
    tran: time = 9.039 ms    (22.6 %), step = 47.08 us     (118 m%)
    tran: time = 11.01 ms    (27.5 %), step = 49.8 us      (124 m%)
    tran: time = 13.02 ms    (32.5 %), step = 48.52 us     (121 m%)
    tran: time = 15.03 ms    (37.6 %), step = 47.46 us     (119 m%)
    tran: time = 17 ms       (42.5 %), step = 50 us        (125 m%)
    tran: time = 19.01 ms    (47.5 %), step = 49.06 us     (123 m%)
    tran: time = 21.03 ms    (52.6 %), step = 47.9 us      (120 m%)
    tran: time = 23.04 ms    (57.6 %), step = 46.99 us     (117 m%)
    tran: time = 25.01 ms    (62.5 %), step = 49.64 us     (124 m%)
    tran: time = 27.02 ms    (67.6 %), step = 48.39 us     (121 m%)
    tran: time = 29.03 ms    (72.6 %), step = 47.36 us     (118 m%)
    tran: time = 31 ms       (77.5 %), step = 50 us        (125 m%)
    tran: time = 33.02 ms    (82.5 %), step = 48.91 us     (122 m%)
    tran: time = 35.03 ms    (87.6 %), step = 47.77 us     (119 m%)
    tran: time = 37.04 ms    (92.6 %), step = 46.89 us     (117 m%)
    tran: time = 39.01 ms    (97.5 %), step = 49.47 us     (124 m%)
Number of accepted tran steps =             851

Maximum value achieved for any signal of each quantity: 
V: V(net2) = 3.63 V
I: I(V0:p) = 6.485 uA
Maximum value of each quantity, excluding Verilog-A modules or dangling current sources:
V: V(vout_filt) = 1.614 V
I: I(V0:p) = 6.485 uA

~~~~~~~~~~~~~~~~~~~~~~~~~~~~~~~~~
Post-Transient Simulation Summary
~~~~~~~~~~~~~~~~~~~~~~~~~~~~~~~~~
   -   To further speed up simulation, consider
          add ++aps on command line
   -   Non-default settings that could significantly slow down simulation
          errpreset = conservative, default moderate
          reltol = 10e-06, default 100e-06 (conservative)
~~~~~~~~~~~~~~~~~~~~~~~~~~~~~~~~~


During simulation, the CPU load for active processors is :
         0 (19.3 %)      1 (100.0 %)     2 (43.0 %)      3 (100.0 %)
         4 (8.0 %)       5 (35.7 %)      6 (5.3 %)       7 (7.3 %)
         8 (4.7 %)       9 (6.7 %)      10 (5.2 %)      11 (100.0 %)
        12 (19.7 %)     13 (34.0 %)     14 (55.6 %)     15 (13.2 %)
        16 (23.5 %)     17 (6.0 %)      18 (5.3 %)      19 (98.7 %)
        20 (4.6 %)      21 (6.7 %)      22 (10.6 %)     23 (11.1 %)
        24 (55.6 %)     25 (2.7 %)      26 (14.9 %)     27 (100.0 %)
        28 (4.0 %)      29 (2.6 %)      30 (30.1 %)     31 (24.8 %)
        32 (3.3 %)      33 (6.6 %)      34 (5.3 %)      35 (8.0 %)
        36 (64.3 %)     37 (3.3 %)      38 (33.3 %)     39 (100.0 %)
        40 (6.6 %)      41 (2.6 %)      42 (5.3 %)      43 (3.3 %)
        44 (3.3 %)      45 (52.9 %)     47 (2.6 %)      
        Total: 1260.4%
Initial condition solution time: CPU = 1.117 ms, elapsed = 1.11985 ms.
Intrinsic tran analysis time:    CPU = 473.829 ms, elapsed = 475.728 ms.

Opening the PSF file ../psf/tranViolations.violations ...
Total time required for tran analysis `tran': CPU = 481.21 ms, elapsed = 486.915 ms, util. = 98.8%.
Time accumulated: CPU = 1.04852 s, elapsed = 1.602 s.
Peak resident memory used = 208 Mbytes.


Notice from spectre.
    12 warnings suppressed.

finalTimeOP: writing operating point information to rawfile.

Opening the PSF file ../psf/finalTimeOP.info ...
modelParameter: writing model parameter values to rawfile.

Opening the PSF file ../psf/modelParameter.info ...
element: writing instance parameter values to rawfile.

Opening the PSF file ../psf/element.info ...
outputParameter: writing output parameter values to rawfile.

Opening the PSF file ../psf/outputParameter.info ...
designParamVals: writing netlist parameters to rawfile.

Opening the PSFASCII file ../psf/designParamVals.info ...
primitives: writing primitives to rawfile.

Opening the PSFASCII file ../psf/primitives.info.primitives ...
subckts: writing subcircuits to rawfile.

Opening the PSFASCII file ../psf/subckts.info.subckts ...
Licensing Information:
Lic Summary:
[09:02:20.492290] Cdslmd servers:3000@lic08.ug.kth.se:29000@lic06.ug.kth.se
[09:02:20.492328] Feature usage summary:
[09:02:20.492329] Virtuoso_Multi_mode_Simulation


Aggregate audit (9:02:20 AM, Thur Apr 16, 2026):
Time used: CPU = 1.09 s, elapsed = 1.65 s, util. = 65.9%.
Time spent in licensing: elapsed = 52.8 ms.
Peak memory used = 209 Mbytes.
Simulation started at: 9:02:18 AM, Thur Apr 16, 2026, ended at: 9:02:20 AM, Thur Apr 16, 2026, with elapsed time (wall clock): 1.65 s.
spectre completes with 0 errors, 27 warnings, and 14 notices.
