
Spectre (R) Circuit Simulator
Version 24.1.0.288.isr5 64bit -- 3 Apr 2025
Copyright (C) 1989-2025 Cadence Design Systems, Inc. All rights reserved worldwide. Cadence and Spectre are registered trademarks of Cadence Design Systems, Inc. All others are the property of their respective holders.

Includes RSA BSAFE(R) Cryptographic or Security Protocol Software from RSA Security, Inc.

User: davidevi   Host: il2244vt26_davidevi   HostID: 11AC2C00   PID: 1053677
Memory  available: 3.0390 TB  physical: 3.2467 TB
Linux   : Rocky Linux release 8.10 (Green Obsidian)
CPU Type: Intel(R) Xeon(R) CPU E7-8857 v2 @ 3.00GHz
        Socket: Processors [Frequency]
        0:       0 [2999.9],  1 [1200.0],  2 [1400.0],  3 [2999.9],  4 [1200.0]
                 5 [1200.0],  6 [1200.0],  7 [1200.0],  8 [1200.0],  9 [2999.9]
                10 [1200.0], 11 [1400.0]
        1:      12 [2999.9], 13 [2999.9], 14 [2999.9], 15 [1200.0], 16 [1200.0]
                17 [2999.9], 18 [1200.0], 19 [1200.0], 20 [1200.0], 21 [2600.0]
                22 [3300.0], 23 [3100.0]
        2:      24 [3600.0], 25 [3435.5], 26 [1200.0], 27 [1200.0], 28 [1200.0]
                29 [1200.0], 30 [1200.0], 31 [3435.3], 32 [1200.0], 33 [2800.0]
                34 [1200.0], 35 [3000.0]
        3:      36 [3600.0], 37 [1200.0], 38 [1200.0], 39 [2999.9], 40 [1200.0]
                41 [1200.0], 42 [1200.0], 43 [2999.9], 44 [1200.0], 45 [1200.0]
                46 [1200.0], 47 [1200.0]
        
System load averages (1min, 5min, 15min) : 28.0 %, 23.1 %, 18.6 %
HPC is enabled


Simulating `input.scs' on il2244vt26_davidevi at 9:10:28 AM, Thur Apr 16, 2026 (process id: 1053677).
Current working directory: /home/davidevi/Desktop/myproject/Sim/VGA/VGA_1_tb/adexl/results/data/MonteCarlo.3/19/Linerity_MC/groupRunDataDir/netlist
Command line:
    /opt/tools/cadence/installs/SPECTRE241/tools/bin/spectre -64  \
        input.scs +escchars +log ../psf/spectre.out -format psfbin  \
        +rtsf -raw ../psf +aps +mt +lqtimeout 900 -maxw 5 -maxn 5  \
        +param /opt/pdk/ams/410/spectre/ams_range.lmts -env ade  \
        -ahdllibdir  \
        /home/davidevi/Desktop/myproject/Sim/VGA/VGA_1_tb/adexl/results/data/MonteCarlo.3/sharedData/Job473/ahdl/input.ahdlSimDB  \
        +logstatus  \
        +adespetkn=0001089D13A302B663E41FB550AF0DF415A679A322D5069144BF588C12F604E07EF416DC01A319B562BB63D303E245AB45A30BB109FC219504CE69CB65F54F924EE879D15D9175FF34986BDD0AF002BA50FD7FD707E002A700AC1C8618F746EA0EAB79D128F874D3349879D118F874D334981031BF7BD3505D780000367E

Simulation Id: 1xDBB60VUFFLjjzp
Licensing Information:
[09:10:28.121762] Configured Lic search path (24.01-s002): 3000@lic08.ug.kth.se:29000@lic06.ug.kth.se

Licensing Information:
[09:10:28.301672] Periodic Lic check successful

Loading /opt/tools/cadence/installs/SPECTRE241/tools.lnx86/cmi/lib/64bit/5.0/libinfineon_sh.so ...
Loading /opt/tools/cadence/installs/SPECTRE241/tools.lnx86/cmi/lib/64bit/5.0/libphilips_I_sh.so ...
Loading /opt/tools/cadence/installs/SPECTRE241/tools.lnx86/cmi/lib/64bit/5.0/libphilips_sh.so ...
Loading /opt/tools/cadence/installs/SPECTRE241/tools.lnx86/cmi/lib/64bit/5.0/libsparam_sh.so ...
Loading /opt/tools/cadence/installs/SPECTRE241/tools.lnx86/cmi/lib/64bit/5.0/libstmodels_sh.so ...

Warning from spectre.
    WARNING (SPECTRE-691): This CPU processor does not support x86 advanced vector extensions instructions. This may affect math operations and slow down the simulation.

Reading file:  /home/davidevi/Desktop/myproject/Sim/VGA/VGA_1_tb/adexl/results/data/MonteCarlo.3/19/Linerity_MC/groupRunDataDir/netlist/input.scs
Reading file:  /opt/pdk/ams/410/spectre/ams_range.lmts

Warning from spectre during read of parameter soft limits file `/opt/pdk/ams/410/spectre/ams_range.lmts', during circuit read-in.
    WARNING (SPECTRE-8360): line 1511: `ac' is an undefined primitive device.
    WARNING (SPECTRE-8360): line 1512: `ac' is an undefined primitive device.
    WARNING (SPECTRE-8360): line 1513: `ac' is an undefined primitive device.
    WARNING (SPECTRE-8360): line 1514: `ac' is an undefined primitive device.
    WARNING (SPECTRE-8360): line 1515: `ac' is an undefined primitive device.
        Further occurrences of this warning will be suppressed.

Reading file:  /opt/tools/cadence/installs/SPECTRE241/tools.lnx86/spectre/etc/configs/spectre.cfg
Reading file:  /opt/pdk/ams/410/spectre/c35/soac/soac.scs
Reading file:  /opt/pdk/ams/410/spectre/c35/soac/processOption.scs
Reading file:  /opt/pdk/ams/410/spectre/c35/soac/process.scs
Reading file:  /opt/pdk/ams/410/spectre/c35/soac/soac.va

Warning from spectre during AHDL read-in.
    WARNING (VACOMP-2435): The environment variable CDS_AHDLCMI_ENABLE is no longer supported. Therefore, the simulator will use the default compiled C code flow.

Reading link:  /opt/tools/cadence/installs/SPECTRE241/tools.lnx86/spectre/etc/ahdl/constants.h
Reading file:  /opt/tools/cadence/installs/SPECTRE241/tools.lnx86/spectre/etc/ahdl/constants.vams
Reading link:  /opt/tools/cadence/installs/SPECTRE241/tools.lnx86/spectre/etc/ahdl/discipline.h
Reading file:  /opt/tools/cadence/installs/SPECTRE241/tools.lnx86/spectre/etc/ahdl/disciplines.vams
Reading file:  /opt/pdk/ams/410/spectre/c35/processOption/C35B4C3.scs
Reading file:  /opt/pdk/ams/410/spectre/c35/soac/cmos53.scs
Reading file:  /opt/pdk/ams/410/spectre/c35/soac/res.scs
Reading file:  /opt/pdk/ams/410/spectre/c35/soac/cap.scs
Reading file:  /opt/pdk/ams/410/spectre/c35/soac/bip.scs
Reading file:  /opt/pdk/ams/410/spectre/c35/soac/ind.scs
Reading file:  /opt/pdk/ams/410/spectre/c35/soac/esddiode.scs
Time for NDB Parsing: CPU = 170.418 ms, elapsed = 309.284 ms.
Time accumulated: CPU = 364.065 ms, elapsed = 309.287 ms.
Peak resident memory used = 175 Mbytes.

Existing shared object for module modn_ahdl is up to date.
Installed compiled interface for modn_ahdl.
Existing shared object for module modp_ahdl is up to date.
Installed compiled interface for modp_ahdl.
Existing shared object for module cpoly_ahdl is up to date.
Installed compiled interface for cpoly_ahdl.
Existing shared object for module rpolyh_ahdl is up to date.
Installed compiled interface for rpolyh_ahdl.
Existing shared object for module bsource_19b458 is up to date.
Installed compiled interface for bsource_19b458.
Time for Elaboration: CPU = 57.54 ms, elapsed = 59.4919 ms.
Time accumulated: CPU = 421.736 ms, elapsed = 368.909 ms.
Peak resident memory used = 188 Mbytes.


Notice from spectre during hierarchy flattening.
    The value 'psf' specified for the 'checklimitdest' option will no longer be supported in future releases. Use 'spectre -h' to see other recommended values for the 'checklimitdest' option.


*****************************************************************************************
* 
* INFO: AMS_processOption = C35B4C3
* 
* INFO: Valid Modules  PIP VG5 HIRES
* 
*****************************************************************************************


Time for EDB Visiting: CPU = 10.003 ms, elapsed = 10.0031 ms.
Time accumulated: CPU = 431.96 ms, elapsed = 379.132 ms.
Peak resident memory used = 191 Mbytes.

Loading /opt/tools/cadence/installs/SPECTRE241/tools.lnx86/mdl/lib/64bit/libSpectreEH_sh.so ...

Warning from spectre during initial setup.
    WARNING (SPECTRE-16460): SOAC_cvarm_vspsub:Specified subcircuit master `cvarm' was not found.
    WARNING (SPECTRE-16462): SOAC_cvarm_vspsub:Error in specification of subcircuit master. Assert is ignored.
    WARNING (SPECTRE-16460): SOAC_cvarm_vbs:Specified subcircuit master `cvarm' was not found.
    WARNING (SPECTRE-16462): SOAC_cvarm_vbs:Error in specification of subcircuit master. Assert is ignored.
    WARNING (SPECTRE-16460): SOAC_cvarm_vgb:Specified subcircuit master `cvarm' was not found.
    WARNING (SPECTRE-16462): SOAC_cvarm_vgb:Error in specification of subcircuit master. Assert is ignored.
    WARNING (SPECTRE-16460): SOAC_cvart_vspsub:Specified subcircuit master `cvart' was not found.
    WARNING (SPECTRE-16462): SOAC_cvart_vspsub:Error in specification of subcircuit master. Assert is ignored.
    WARNING (SPECTRE-16460): SOAC_cvart_vbs:Specified subcircuit master `cvart' was not found.
        Further occurrences of this warning will be suppressed.
    WARNING (SPECTRE-16462): SOAC_cvart_vbs:Error in specification of subcircuit master. Assert is ignored.
        Further occurrences of this warning will be suppressed.
Notice from spectre during topology check.
    Only one connection to the following 54 nodes:
        I0.MN6.psub!
        I0.MN5.psub!
        I0.MN4.psub!
        I0.MN3.psub!
        I0.MN2.psub!
        Further occurrences of this notice will be suppressed.
Notice from spectre during initial setup.
    Multithreading is disabled due to the size of the design being too small.


Netlist title:
        // Point Netlist Generated on: Apr 16 09:10:28 2026


Global user options:
         psfversion = 1.4.0
            vabstol = 1e-06
            iabstol = 1e-12
               temp = 85
           homotopy = 5
              limit = delta
         compatible = spice2
               gmin = 1e-12
             rforce = 1
           maxnotes = 5
           maxwarns = 5
             digits = 5
               cols = 80
             pivrel = 0.001
           sensfile = ../psf/sens.output
     checklimitdest = psf
     enable_pre_ver = yes
      ignorezerovar = yes
               save = allpub
             reltol = 0.0001
               tnom = 27
             scalem = 1
              scale = 1

Scoped user options:

Circuit inventory:
              nodes 88
            bsim3v3 35    
     bsource_19b458 2     
          capacitor 38    
         cpoly_ahdl 17    
            isource 1     
          modn_ahdl 19    
          modp_ahdl 16    
           resistor 1     
        rpolyh_ahdl 2     
            vsource 8     

Analysis and control statement inventory:
                 dc 1     
               info 8     
         montecarlo 1     
               tran 1     

Output statements:
             .probe 0     
           .measure 0     
               save 0     

Design checks inventory:
          paramtest 55    
             assert 175   


Notice from spectre during initial setup.
    APS enabled.
    1 notice suppressed.
    72 warnings suppressed.

Time for parsing: CPU = 19.428 ms, elapsed = 622.411 ms.
Time accumulated: CPU = 451.552 ms, elapsed = 1.00171 s.
Peak resident memory used = 198 Mbytes.

~~~~~~~~~~~~~~~~~~~~~~
Pre-Simulation Summary
~~~~~~~~~~~~~~~~~~~~~~
   -   (APS) Multi-threading. The recommended number of threads is 1, consider adding +mt=1 on command line.
~~~~~~~~~~~~~~~~~~~~~~

*************************************************
Monte Carlo Analysis `mc1': iteration = (1 -> 50)
*************************************************
Important parameter values:
    seed = 12345
    sampling = lds
    variations = all
    firstrun = 1
    numruns = 50
    nullmfactorcorrelation = no
    donominal = yes
    method = standard

**** Performing nominal run for `mc1'

******************
DC Analysis `dcOp'
******************

Notice from spectre during DC analysis `dcOp', during Monte Carlo analysis `mc1'.
    No checklimit analysis defined for asserts. A default checklimit analysis 'SpectreChecklimitAnal' has been created with all asserts enabled.


Opening the PSF file ../psf/nom/dcOp.dc ...
Important parameter values:
    reltol = 100e-06
    abstol(V) = 1 uV
    abstol(I) = 1 pA
    temp = 85 C
    tnom = 27 C
    tempeffects = all
    gmindc = 1 pS
    rabsshort = 1 mOhm

Notice from spectre during DC analysis `dcOp', during Monte Carlo analysis `mc1'.
    Bad pivoting is found during DC analysis. Option dc_pivot_check=yes is recommended for possible improvement of convergence.


Maximum value achieved for any signal of each quantity: 
V: V(S<0>) = 3.3 V
I: I(V0:p) = 6.43 uA
Maximum value of each quantity, excluding Verilog-A modules or dangling current sources:
V: V(vout_filt) = 1.6 V
I: I(V0:p) = 6.43 uA

Warning from spectre during check, during DC analysis `dcOp', during Monte Carlo analysis `mc1'.
    WARNING (CMI-2943): Parameter checks have been ignored because the valid value for parameter 'trise' could not be found in 'C1'.
    WARNING (CMI-2943): Parameter checks have been ignored because the valid value for parameter 'trise' could not be found in 'I0.R2.CM'.
    WARNING (CMI-2943): Parameter checks have been ignored because the valid value for parameter 'trise' could not be found in 'I0.R2.CS1'.
    WARNING (CMI-2943): Parameter checks have been ignored because the valid value for parameter 'trise' could not be found in 'I0.R2.CS0'.
    WARNING (CMI-2943): Parameter checks have been ignored because the valid value for parameter 'trise' could not be found in 'I0.C8<3>.C1'.
        Further occurrences of this warning will be suppressed.

Convergence achieved in 18 iterations.
DC simulation time: CPU = 87.999 ms, elapsed = 91.485 ms.
Total time required for dc analysis `dcOp': CPU = 88.124 ms, elapsed = 91.6071 ms, util. = 96.2%.
Time accumulated: CPU = 562.238 ms, elapsed = 1.11659 s.
Peak resident memory used = 207 Mbytes.


Notice from spectre during Monte Carlo analysis `mc1'.
    34 warnings suppressed.

dcOpInfo: writing operating point information to rawfile.

Opening the PSF file ../psf/nom/dcOpInfo.info ...

************************************************
Transient Analysis `tran': time = (0 s -> 40 ms)
************************************************

Notice from spectre during IC analysis, during transient analysis `tran', during Monte Carlo analysis `mc1'.
    Bad pivoting is found during DC analysis. Option dc_pivot_check=yes is recommended for possible improvement of convergence.
Warning from spectre during check, during IC analysis, during transient analysis `tran', during Monte Carlo analysis `mc1'.
    WARNING (CMI-2943): Parameter checks have been ignored because the valid value for parameter 'trise' could not be found in 'C1'.
    WARNING (CMI-2943): Parameter checks have been ignored because the valid value for parameter 'trise' could not be found in 'I0.R2.CM'.
    WARNING (CMI-2943): Parameter checks have been ignored because the valid value for parameter 'trise' could not be found in 'I0.R2.CS1'.
    WARNING (CMI-2943): Parameter checks have been ignored because the valid value for parameter 'trise' could not be found in 'I0.R2.CS0'.
    WARNING (CMI-2943): Parameter checks have been ignored because the valid value for parameter 'trise' could not be found in 'I0.C8<3>.C1'.
        Further occurrences of this warning will be suppressed.

Convergence achieved in 2 iterations.
DC simulation time: CPU = 1.115 ms, elapsed = 1.11604 ms.

Opening the PSF file ../psf/nom/tran.tran.tran ...
Important parameter values:
    start = 0 s
    outputstart = 0 s
    stop = 40 ms
    step = 40 us
    maxstep = 400 us
    ic = all
    useprevic = no
    skipdc = no
    reltol = 10e-06
    abstol(V) = 1 uV
    abstol(I) = 1 pA
    temp = 85 C
    tnom = 27 C
    tempeffects = all
    errpreset = conservative
    method = gear2only
    lteratio = 10
    relref = alllocal
    cmin = 0 F
    gmin = 1 pS
    rabsshort = 1 mOhm


Notice from spectre during transient analysis `tran', during Monte Carlo analysis `mc1'.
    Multithreading is disabled due to the size of the design being too small.


Output and IC/nodeset summary:
                 save   8       (current)
                 save   87      (voltage)

    tran: time = 1.017 ms    (2.54 %), step = 48.85 us     (122 m%)
    tran: time = 3.031 ms    (7.58 %), step = 47.72 us     (119 m%)
    tran: time = 5.044 ms    (12.6 %), step = 46.85 us     (117 m%)
    tran: time = 7.011 ms    (17.5 %), step = 49.4 us      (123 m%)
    tran: time = 9.024 ms    (22.6 %), step = 48.19 us     (120 m%)
    tran: time = 11.04 ms    (27.6 %), step = 47.2 us      (118 m%)
    tran: time = 13.01 ms    (32.5 %), step = 50 us        (125 m%)
    tran: time = 15.02 ms    (37.5 %), step = 48.69 us     (122 m%)
    tran: time = 17.03 ms    (42.6 %), step = 47.59 us     (119 m%)
    tran: time = 19.05 ms    (47.6 %), step = 46.75 us     (117 m%)
    tran: time = 21.01 ms    (52.5 %), step = 49.23 us     (123 m%)
    tran: time = 23.03 ms    (57.6 %), step = 48.05 us     (120 m%)
    tran: time = 25.04 ms    (62.6 %), step = 47.09 us     (118 m%)
    tran: time = 27.01 ms    (67.5 %), step = 49.82 us     (125 m%)
    tran: time = 29.02 ms    (72.6 %), step = 48.54 us     (121 m%)
    tran: time = 31.03 ms    (77.6 %), step = 47.48 us     (119 m%)
    tran: time = 33 ms       (82.5 %), step = 50 us        (125 m%)
    tran: time = 35.01 ms    (87.5 %), step = 49.07 us     (123 m%)
    tran: time = 37.03 ms    (92.6 %), step = 47.91 us     (120 m%)
    tran: time = 39.04 ms    (97.6 %), step = 46.99 us     (117 m%)
Number of accepted tran steps =             851

Maximum value achieved for any signal of each quantity: 
V: V(S<0>) = 3.3 V
I: I(V0:p) = 6.431 uA
Maximum value of each quantity, excluding Verilog-A modules or dangling current sources:
V: V(vout_filt) = 1.614 V
I: I(V0:p) = 6.431 uA

~~~~~~~~~~~~~~~~~~~~~~~~~~~~~~~~~
Post-Transient Simulation Summary
~~~~~~~~~~~~~~~~~~~~~~~~~~~~~~~~~
   -   To further speed up simulation, consider
          add ++aps on command line
   -   Non-default settings that could significantly slow down simulation
          errpreset = conservative, default moderate
          reltol = 10e-06, default 100e-06 (conservative)
~~~~~~~~~~~~~~~~~~~~~~~~~~~~~~~~~


During simulation, the CPU load for active processors is :
         0 (97.5 %)      1 (2.6 %)       2 (6.4 %)       3 (65.2 %)
         4 (16.6 %)      5 (2.5 %)       7 (5.0 %)       8 (1.3 %)
         9 (100.0 %)    10 (3.8 %)      11 (20.8 %)     12 (41.4 %)
        13 (62.5 %)     14 (1.3 %)      15 (1.9 %)      16 (3.2 %)
        17 (100.0 %)    18 (60.5 %)     19 (35.3 %)     20 (1.9 %)
        21 (6.4 %)      22 (1.9 %)      23 (26.8 %)     24 (7.6 %)
        25 (66.2 %)     26 (14.6 %)     27 (9.4 %)      28 (28.7 %)
        29 (3.2 %)      30 (2.5 %)      31 (100.0 %)    32 (2.6 %)
        33 (2.6 %)      34 (1.3 %)      35 (2.6 %)      36 (7.7 %)
        37 (38.9 %)     38 (29.1 %)     39 (95.6 %)     40 (7.1 %)
        41 (32.7 %)     42 (3.8 %)      43 (100.0 %)    44 (34.4 %)
        45 (4.5 %)      46 (3.9 %)      47 (3.9 %)      
        Total: 1268.1%
Initial condition solution time: CPU = 1.161 ms, elapsed = 1.16205 ms.
Intrinsic tran analysis time:    CPU = 511.692 ms, elapsed = 513.373 ms.
Total time required for tran analysis `tran': CPU = 515.079 ms, elapsed = 517.405 ms, util. = 99.6%.
Time accumulated: CPU = 1.08604 s, elapsed = 1.6452 s.
Peak resident memory used = 210 Mbytes.


Notice from spectre during transient analysis `tran', during Monte Carlo analysis `mc1'.
    34 warnings suppressed.

finalTimeOP: writing operating point information to rawfile.

Opening the PSF file ../psf/nom/finalTimeOP.info ...
modelParameter: writing model parameter values to rawfile.

Opening the PSF file ../psf/nom/modelParameter.info ...
element: writing instance parameter values to rawfile.

Opening the PSF file ../psf/nom/element.info ...
outputParameter: writing output parameter values to rawfile.

Opening the PSF file ../psf/nom/outputParameter.info ...
designParamVals: writing netlist parameters to rawfile.

Opening the PSFASCII file ../psf/nom/designParamVals.info ...
primitives: writing primitives to rawfile.

Opening the PSFASCII file ../psf/nom/primitives.info.primitives ...
subckts: writing subcircuits to rawfile.

Opening the PSFASCII file ../psf/nom/subckts.info.subckts ...
Opening iteration number and data-directory mapping file:  /home/davidevi/Desktop/myproject/Sim/VGA/VGA_1_tb/adexl/results/data/MonteCarlo.3/19/Linerity_MC/groupRunDataDir/netlist/../psf/mc1.mapping

Statistical parameters:
    Defined process parameters: 629
    Defined mismatch parameters (subckt based): 86
    Non-referenced mismatch parameters: 80
    Number of random variables: 718
    Gaussian truncation for process parameters: 4.00 sigma
    Gaussian truncation for mismatch parameters: 4.00 sigma


Opening the PSF file ../psf/mc1_dcOp.montecarlo ...

Opening the PSF file ../psf/mc1_dcOpInfo.montecarlo ...

Opening the PSF file ../psf/mc1_tran.montecarlo ...

Opening the PSF file ../psf/mc1_finalTimeOP.montecarlo ...

Opening the PSF file ../psf/mc1_modelParameter.montecarlo ...

Opening the PSF file ../psf/mc1_element.montecarlo ...

Opening the PSF file ../psf/mc1_outputParameter.montecarlo ...

Opening the PSF file ../psf/mc1_designParamVals.montecarlo ...

Opening the PSF file ../psf/mc1_primitives.montecarlo ...

Opening the PSF file ../psf/mc1_subckts.montecarlo ...

**** Performing monte carlo loop for `mc1'

1   0.00% 

*****************************************************************************************
* 
* INFO: AMS_processOption = C35B4C3
* 
* INFO: Valid Modules  PIP VG5 HIRES
* 
*****************************************************************************************


******************
DC Analysis `dcOp'
******************

Opening the PSF file ../psf/mc1_separate/001/dcOp.dc ...
Important parameter values:
    reltol = 100e-06
    abstol(V) = 1 uV
    abstol(I) = 1 pA
    temp = 85 C
    tnom = 27 C
    tempeffects = all
    gmindc = 1 pS
    rabsshort = 1 mOhm

Notice from spectre at iteration = 1 during DC analysis `dcOp', during Monte Carlo analysis `mc1'.
    Bad pivoting is found during DC analysis. Option dc_pivot_check=yes is recommended for possible improvement of convergence.


Maximum value achieved for any signal of each quantity: 
V: V(S<0>) = 3.3 V
I: I(V0:p) = 6.231 uA
Maximum value of each quantity, excluding Verilog-A modules or dangling current sources:
V: V(vout_filt) = 1.6 V
I: I(V0:p) = 6.231 uA

Warning from spectre at iteration = 1 during check, during DC analysis `dcOp', during Monte Carlo analysis `mc1'.
    WARNING (CMI-2943): Parameter checks have been ignored because the valid value for parameter 'trise' could not be found in 'C1'.
    WARNING (CMI-2943): Parameter checks have been ignored because the valid value for parameter 'trise' could not be found in 'I0.R2.CM'.
    WARNING (CMI-2943): Parameter checks have been ignored because the valid value for parameter 'trise' could not be found in 'I0.R2.CS1'.
    WARNING (CMI-2943): Parameter checks have been ignored because the valid value for parameter 'trise' could not be found in 'I0.R2.CS0'.
    WARNING (CMI-2943): Parameter checks have been ignored because the valid value for parameter 'trise' could not be found in 'I0.C8<3>.C1'.
        Further occurrences of this warning will be suppressed.

Convergence achieved in 18 iterations.
DC simulation time: CPU = 5.509 ms, elapsed = 6.71101 ms.
Total time required for dc analysis `dcOp': CPU = 5.984 ms, elapsed = 7.18594 ms, util. = 83.3%.
Time accumulated: CPU = 1.16884 s, elapsed = 1.74324 s.
Peak resident memory used = 212 Mbytes.


Notice from spectre at iteration = 1 during Monte Carlo analysis `mc1'.
    34 warnings suppressed.

dcOpInfo: writing operating point information to rawfile.

Opening the PSF file ../psf/mc1_separate/001/dcOpInfo.info ...

************************************************
Transient Analysis `tran': time = (0 s -> 40 ms)
************************************************

Opening the PSF file ../psf/mc1_separate/001/tran.tran.tran ...

Notice from spectre at iteration = 1 during IC analysis, during transient analysis `tran', during Monte Carlo analysis `mc1'.
    Bad pivoting is found during DC analysis. Option dc_pivot_check=yes is recommended for possible improvement of convergence.
Warning from spectre at iteration = 1 during check, during IC analysis, during transient analysis `tran', during Monte Carlo analysis `mc1'.
    WARNING (CMI-2943): Parameter checks have been ignored because the valid value for parameter 'trise' could not be found in 'C1'.
    WARNING (CMI-2943): Parameter checks have been ignored because the valid value for parameter 'trise' could not be found in 'I0.R2.CM'.
    WARNING (CMI-2943): Parameter checks have been ignored because the valid value for parameter 'trise' could not be found in 'I0.R2.CS1'.
    WARNING (CMI-2943): Parameter checks have been ignored because the valid value for parameter 'trise' could not be found in 'I0.R2.CS0'.
    WARNING (CMI-2943): Parameter checks have been ignored because the valid value for parameter 'trise' could not be found in 'I0.C8<3>.C1'.
        Further occurrences of this warning will be suppressed.

Convergence achieved in 18 iterations.
DC simulation time: CPU = 2.725 ms, elapsed = 2.72584 ms.
Important parameter values:
    start = 0 s
    outputstart = 0 s
    stop = 40 ms
    step = 40 us
    maxstep = 400 us
    ic = all
    useprevic = no
    skipdc = no
    reltol = 10e-06
    abstol(V) = 1 uV
    abstol(I) = 1 pA
    temp = 85 C
    tnom = 27 C
    tempeffects = all
    errpreset = conservative
    method = gear2only
    lteratio = 10
    relref = alllocal
    cmin = 0 F
    gmin = 1 pS
    rabsshort = 1 mOhm


Notice from spectre at iteration = 1 during transient analysis `tran', during Monte Carlo analysis `mc1'.
    Multithreading is disabled due to the size of the design being too small.


Output and IC/nodeset summary:
                 save   8       (current)
                 save   87      (voltage)

    tran: time = 1.016 ms    (2.54 %), step = 48.93 us     (122 m%)
    tran: time = 3.03 ms     (7.57 %), step = 47.79 us     (119 m%)
    tran: time = 5.043 ms    (12.6 %), step = 46.89 us     (117 m%)
    tran: time = 7.01 ms     (17.5 %), step = 49.47 us     (124 m%)
    tran: time = 9.024 ms    (22.6 %), step = 48.25 us     (121 m%)
    tran: time = 11.04 ms    (27.6 %), step = 47.25 us     (118 m%)
    tran: time = 13 ms       (32.5 %), step = 50 us        (125 m%)
    tran: time = 15.02 ms    (37.5 %), step = 48.75 us     (122 m%)
    tran: time = 17.03 ms    (42.6 %), step = 47.64 us     (119 m%)
    tran: time = 19.05 ms    (47.6 %), step = 46.78 us     (117 m%)
    tran: time = 21.01 ms    (52.5 %), step = 49.28 us     (123 m%)
    tran: time = 23.03 ms    (57.6 %), step = 48.09 us     (120 m%)
    tran: time = 25.04 ms    (62.6 %), step = 47.12 us     (118 m%)
    tran: time = 27.01 ms    (67.5 %), step = 49.87 us     (125 m%)
    tran: time = 29.02 ms    (72.5 %), step = 48.57 us     (121 m%)
    tran: time = 31.03 ms    (77.6 %), step = 47.5 us      (119 m%)
    tran: time = 33 ms       (82.5 %), step = 50 us        (125 m%)
    tran: time = 35.01 ms    (87.5 %), step = 49.1 us      (123 m%)
    tran: time = 37.03 ms    (92.6 %), step = 47.93 us     (120 m%)
    tran: time = 39.04 ms    (97.6 %), step = 47.01 us     (118 m%)
Number of accepted tran steps =             851

Maximum value achieved for any signal of each quantity: 
V: V(S<0>) = 3.3 V
I: I(V0:p) = 6.231 uA
Maximum value of each quantity, excluding Verilog-A modules or dangling current sources:
V: V(vout_filt) = 1.614 V
I: I(V0:p) = 6.231 uA

~~~~~~~~~~~~~~~~~~~~~~~~~~~~~~~~~
Post-Transient Simulation Summary
~~~~~~~~~~~~~~~~~~~~~~~~~~~~~~~~~
   -   To further speed up simulation, consider
          add ++aps on command line
   -   Non-default settings that could significantly slow down simulation
          errpreset = conservative, default moderate
          reltol = 10e-06, default 100e-06 (conservative)
~~~~~~~~~~~~~~~~~~~~~~~~~~~~~~~~~


During simulation, the CPU load for active processors is :
         0 (75.8 %)      1 (2.3 %)       2 (5.9 %)       3 (47.3 %)
         4 (17.9 %)      5 (2.3 %)       7 (26.8 %)      8 (2.8 %)
         9 (100.0 %)    10 (3.6 %)      11 (20.5 %)     12 (34.2 %)
        13 (69.1 %)     14 (1.4 %)      15 (2.3 %)      16 (7.4 %)
        17 (100.0 %)    18 (69.9 %)     19 (26.6 %)     20 (2.3 %)
        21 (6.0 %)      22 (1.9 %)      23 (22.9 %)     24 (9.2 %)
        25 (54.8 %)     26 (11.8 %)     27 (8.1 %)      28 (42.5 %)
        29 (2.3 %)      30 (3.2 %)      31 (100.0 %)    32 (2.3 %)
        33 (1.9 %)      34 (1.8 %)      35 (1.9 %)      36 (5.6 %)
        37 (56.2 %)     38 (30.1 %)     39 (95.9 %)     40 (5.5 %)
        41 (23.9 %)     42 (2.8 %)      43 (96.8 %)     44 (51.8 %)
        45 (3.2 %)      46 (2.8 %)      47 (4.1 %)      
        Total: 1268.5%
Initial condition solution time: CPU = 2.755 ms, elapsed = 2.75803 ms.
Intrinsic tran analysis time:    CPU = 507.181 ms, elapsed = 509.062 ms.
Total time required for tran analysis `tran': CPU = 511.635 ms, elapsed = 513.98 ms, util. = 99.5%.
Time accumulated: CPU = 1.68719 s, elapsed = 2.26629 s.
Peak resident memory used = 213 Mbytes.


Notice from spectre during transient analysis `tran', during Monte Carlo analysis `mc1'.
    34 warnings suppressed.

finalTimeOP: writing operating point information to rawfile.

Opening the PSF file ../psf/mc1_separate/001/finalTimeOP.info ...
modelParameter: writing model parameter values to rawfile.

Opening the PSF file ../psf/mc1_separate/001/modelParameter.info ...
element: writing instance parameter values to rawfile.

Opening the PSF file ../psf/mc1_separate/001/element.info ...
outputParameter: writing output parameter values to rawfile.

Opening the PSF file ../psf/mc1_separate/001/outputParameter.info ...
designParamVals: writing netlist parameters to rawfile.

Opening the PSFASCII file ../psf/mc1_separate/001/designParamVals.info ...
primitives: writing primitives to rawfile.

Opening the PSFASCII file ../psf/mc1_separate/001/primitives.info.primitives ...
subckts: writing subcircuits to rawfile.

Opening the PSFASCII file ../psf/mc1_separate/001/subckts.info.subckts ...
2   2.04% 

*****************************************************************************************
* 
* INFO: AMS_processOption = C35B4C3
* 
* INFO: Valid Modules  PIP VG5 HIRES
* 
*****************************************************************************************


******************
DC Analysis `dcOp'
******************

Opening the PSF file ../psf/mc1_separate/002/dcOp.dc ...
Important parameter values:
    reltol = 100e-06
    abstol(V) = 1 uV
    abstol(I) = 1 pA
    temp = 85 C
    tnom = 27 C
    tempeffects = all
    gmindc = 1 pS
    rabsshort = 1 mOhm

Notice from spectre during DC analysis `dcOp', during Monte Carlo analysis `mc1'.
    Bad pivoting is found during DC analysis. Option dc_pivot_check=yes is recommended for possible improvement of convergence.


Maximum value achieved for any signal of each quantity: 
V: V(S<0>) = 3.3 V
I: I(V0:p) = 6.455 uA
Maximum value of each quantity, excluding Verilog-A modules or dangling current sources:
V: V(vout_filt) = 1.6 V
I: I(V0:p) = 6.455 uA

Warning from spectre during check, during DC analysis `dcOp', during Monte Carlo analysis `mc1'.
    WARNING (CMI-2943): Parameter checks have been ignored because the valid value for parameter 'trise' could not be found in 'C1'.
    WARNING (CMI-2943): Parameter checks have been ignored because the valid value for parameter 'trise' could not be found in 'I0.R2.CM'.
    WARNING (CMI-2943): Parameter checks have been ignored because the valid value for parameter 'trise' could not be found in 'I0.R2.CS1'.
    WARNING (CMI-2943): Parameter checks have been ignored because the valid value for parameter 'trise' could not be found in 'I0.R2.CS0'.
    WARNING (CMI-2943): Parameter checks have been ignored because the valid value for parameter 'trise' could not be found in 'I0.C8<3>.C1'.
        Further occurrences of this warning will be suppressed.

Convergence achieved in 18 iterations.
DC simulation time: CPU = 5.631 ms, elapsed = 6.86622 ms.
Total time required for dc analysis `dcOp': CPU = 6.112 ms, elapsed = 7.34615 ms, util. = 83.2%.
Time accumulated: CPU = 1.73069 s, elapsed = 2.32149 s.
Peak resident memory used = 213 Mbytes.


Notice from spectre during Monte Carlo analysis `mc1'.
    34 warnings suppressed.

dcOpInfo: writing operating point information to rawfile.

Opening the PSF file ../psf/mc1_separate/002/dcOpInfo.info ...

************************************************
Transient Analysis `tran': time = (0 s -> 40 ms)
************************************************

Opening the PSF file ../psf/mc1_separate/002/tran.tran.tran ...

Notice from spectre during IC analysis, during transient analysis `tran', during Monte Carlo analysis `mc1'.
    Bad pivoting is found during DC analysis. Option dc_pivot_check=yes is recommended for possible improvement of convergence.
Warning from spectre during check, during IC analysis, during transient analysis `tran', during Monte Carlo analysis `mc1'.
    WARNING (CMI-2943): Parameter checks have been ignored because the valid value for parameter 'trise' could not be found in 'C1'.
    WARNING (CMI-2943): Parameter checks have been ignored because the valid value for parameter 'trise' could not be found in 'I0.R2.CM'.
    WARNING (CMI-2943): Parameter checks have been ignored because the valid value for parameter 'trise' could not be found in 'I0.R2.CS1'.
    WARNING (CMI-2943): Parameter checks have been ignored because the valid value for parameter 'trise' could not be found in 'I0.R2.CS0'.
    WARNING (CMI-2943): Parameter checks have been ignored because the valid value for parameter 'trise' could not be found in 'I0.C8<3>.C1'.
        Further occurrences of this warning will be suppressed.

Convergence achieved in 18 iterations.
DC simulation time: CPU = 2.791 ms, elapsed = 2.79212 ms.
Important parameter values:
    start = 0 s
    outputstart = 0 s
    stop = 40 ms
    step = 40 us
    maxstep = 400 us
    ic = all
    useprevic = no
    skipdc = no
    reltol = 10e-06
    abstol(V) = 1 uV
    abstol(I) = 1 pA
    temp = 85 C
    tnom = 27 C
    tempeffects = all
    errpreset = conservative
    method = gear2only
    lteratio = 10
    relref = alllocal
    cmin = 0 F
    gmin = 1 pS
    rabsshort = 1 mOhm


Notice from spectre during transient analysis `tran', during Monte Carlo analysis `mc1'.
    Multithreading is disabled due to the size of the design being too small.


Output and IC/nodeset summary:
                 save   8       (current)
                 save   87      (voltage)

    tran: time = 1.017 ms    (2.54 %), step = 48.84 us     (122 m%)
    tran: time = 3.031 ms    (7.58 %), step = 47.71 us     (119 m%)
    tran: time = 5.044 ms    (12.6 %), step = 46.84 us     (117 m%)
    tran: time = 7.011 ms    (17.5 %), step = 49.38 us     (123 m%)
    tran: time = 9.025 ms    (22.6 %), step = 48.17 us     (120 m%)
    tran: time = 11.04 ms    (27.6 %), step = 47.19 us     (118 m%)
    tran: time = 13.01 ms    (32.5 %), step = 49.98 us     (125 m%)
    tran: time = 15.02 ms    (37.5 %), step = 48.66 us     (122 m%)
    tran: time = 17.03 ms    (42.6 %), step = 47.57 us     (119 m%)
    tran: time = 19.05 ms    (47.6 %), step = 46.73 us     (117 m%)
    tran: time = 21.01 ms    (52.5 %), step = 49.19 us     (123 m%)
    tran: time = 23.03 ms    (57.6 %), step = 48.02 us     (120 m%)
    tran: time = 25.04 ms    (62.6 %), step = 47.07 us     (118 m%)
    tran: time = 27.01 ms    (67.5 %), step = 49.78 us     (124 m%)
    tran: time = 29.02 ms    (72.6 %), step = 48.51 us     (121 m%)
    tran: time = 31.03 ms    (77.6 %), step = 47.45 us     (119 m%)
    tran: time = 33 ms       (82.5 %), step = 50 us        (125 m%)
    tran: time = 35.01 ms    (87.5 %), step = 49.03 us     (123 m%)
    tran: time = 37.03 ms    (92.6 %), step = 47.87 us     (120 m%)
    tran: time = 39.04 ms    (97.6 %), step = 46.96 us     (117 m%)
Number of accepted tran steps =             851

Maximum value achieved for any signal of each quantity: 
V: V(S<0>) = 3.3 V
I: I(V0:p) = 6.456 uA
Maximum value of each quantity, excluding Verilog-A modules or dangling current sources:
V: V(vout_filt) = 1.614 V
I: I(V0:p) = 6.456 uA

~~~~~~~~~~~~~~~~~~~~~~~~~~~~~~~~~
Post-Transient Simulation Summary
~~~~~~~~~~~~~~~~~~~~~~~~~~~~~~~~~
   -   To further speed up simulation, consider
          add ++aps on command line
   -   Non-default settings that could significantly slow down simulation
          errpreset = conservative, default moderate
          reltol = 10e-06, default 100e-06 (conservative)
~~~~~~~~~~~~~~~~~~~~~~~~~~~~~~~~~


During simulation, the CPU load for active processors is :
         0 (60.4 %)      1 (2.6 %)       2 (5.1 %)       3 (37.5 %)
         4 (23.1 %)      5 (2.2 %)       6 (17.8 %)      7 (41.2 %)
         8 (2.5 %)       9 (100.0 %)    10 (2.9 %)      11 (20.1 %)
        12 (30.2 %)     13 (56.3 %)     14 (2.2 %)      15 (3.6 %)
        16 (26.4 %)     17 (100.0 %)    18 (75.1 %)     19 (21.7 %)
        20 (1.8 %)      21 (4.7 %)      22 (2.2 %)      23 (19.2 %)
        24 (19.1 %)     25 (64.3 %)     26 (10.9 %)     27 (7.9 %)
        28 (33.9 %)     29 (2.2 %)      30 (2.5 %)      31 (100.0 %)
        32 (1.8 %)      33 (1.8 %)      34 (2.5 %)      35 (2.2 %)
        36 (5.5 %)      37 (51.6 %)     38 (33.6 %)     39 (95.7 %)
        40 (6.9 %)      41 (21.2 %)     42 (4.0 %)      43 (79.1 %)
        44 (61.7 %)     45 (12.0 %)     46 (3.3 %)      47 (3.6 %)
        Total: 1286.3%
Initial condition solution time: CPU = 2.826 ms, elapsed = 2.82693 ms.
Intrinsic tran analysis time:    CPU = 511.563 ms, elapsed = 512.739 ms.
Total time required for tran analysis `tran': CPU = 516.29 ms, elapsed = 518.06 ms, util. = 99.7%.
Time accumulated: CPU = 2.2539 s, elapsed = 2.84905 s.
Peak resident memory used = 214 Mbytes.


Notice from spectre during transient analysis `tran', during Monte Carlo analysis `mc1'.
    34 warnings suppressed.

finalTimeOP: writing operating point information to rawfile.

Opening the PSF file ../psf/mc1_separate/002/finalTimeOP.info ...
modelParameter: writing model parameter values to rawfile.

Opening the PSF file ../psf/mc1_separate/002/modelParameter.info ...
element: writing instance parameter values to rawfile.

Opening the PSF file ../psf/mc1_separate/002/element.info ...
outputParameter: writing output parameter values to rawfile.

Opening the PSF file ../psf/mc1_separate/002/outputParameter.info ...
designParamVals: writing netlist parameters to rawfile.

Opening the PSFASCII file ../psf/mc1_separate/002/designParamVals.info ...
primitives: writing primitives to rawfile.

Opening the PSFASCII file ../psf/mc1_separate/002/primitives.info.primitives ...
subckts: writing subcircuits to rawfile.

Opening the PSFASCII file ../psf/mc1_separate/002/subckts.info.subckts ...
3   4.08% 

*****************************************************************************************
* 
* INFO: AMS_processOption = C35B4C3
* 
* INFO: Valid Modules  PIP VG5 HIRES
* 
*****************************************************************************************


******************
DC Analysis `dcOp'
******************

Opening the PSF file ../psf/mc1_separate/003/dcOp.dc ...
Important parameter values:
    reltol = 100e-06
    abstol(V) = 1 uV
    abstol(I) = 1 pA
    temp = 85 C
    tnom = 27 C
    tempeffects = all
    gmindc = 1 pS
    rabsshort = 1 mOhm

Notice from spectre during DC analysis `dcOp', during Monte Carlo analysis `mc1'.
    Bad pivoting is found during DC analysis. Option dc_pivot_check=yes is recommended for possible improvement of convergence.


Maximum value achieved for any signal of each quantity: 
V: V(S<0>) = 3.3 V
I: I(V0:p) = 6.355 uA
Maximum value of each quantity, excluding Verilog-A modules or dangling current sources:
V: V(vout_filt) = 1.6 V
I: I(V0:p) = 6.355 uA

Warning from spectre during check, during DC analysis `dcOp', during Monte Carlo analysis `mc1'.
    WARNING (CMI-2943): Parameter checks have been ignored because the valid value for parameter 'trise' could not be found in 'C1'.
    WARNING (CMI-2943): Parameter checks have been ignored because the valid value for parameter 'trise' could not be found in 'I0.R2.CM'.
    WARNING (CMI-2943): Parameter checks have been ignored because the valid value for parameter 'trise' could not be found in 'I0.R2.CS1'.
    WARNING (CMI-2943): Parameter checks have been ignored because the valid value for parameter 'trise' could not be found in 'I0.R2.CS0'.
    WARNING (CMI-2943): Parameter checks have been ignored because the valid value for parameter 'trise' could not be found in 'I0.C8<3>.C1'.
        Further occurrences of this warning will be suppressed.

Convergence achieved in 18 iterations.
DC simulation time: CPU = 5.647 ms, elapsed = 6.87194 ms.
Total time required for dc analysis `dcOp': CPU = 6.148 ms, elapsed = 7.3719 ms, util. = 83.4%.
Time accumulated: CPU = 2.29955 s, elapsed = 2.90636 s.
Peak resident memory used = 214 Mbytes.


Notice from spectre during Monte Carlo analysis `mc1'.
    34 warnings suppressed.

dcOpInfo: writing operating point information to rawfile.

Opening the PSF file ../psf/mc1_separate/003/dcOpInfo.info ...

************************************************
Transient Analysis `tran': time = (0 s -> 40 ms)
************************************************

Opening the PSF file ../psf/mc1_separate/003/tran.tran.tran ...

Notice from spectre during IC analysis, during transient analysis `tran', during Monte Carlo analysis `mc1'.
    Bad pivoting is found during DC analysis. Option dc_pivot_check=yes is recommended for possible improvement of convergence.
Warning from spectre during check, during IC analysis, during transient analysis `tran', during Monte Carlo analysis `mc1'.
    WARNING (CMI-2943): Parameter checks have been ignored because the valid value for parameter 'trise' could not be found in 'C1'.
    WARNING (CMI-2943): Parameter checks have been ignored because the valid value for parameter 'trise' could not be found in 'I0.R2.CM'.
    WARNING (CMI-2943): Parameter checks have been ignored because the valid value for parameter 'trise' could not be found in 'I0.R2.CS1'.
    WARNING (CMI-2943): Parameter checks have been ignored because the valid value for parameter 'trise' could not be found in 'I0.R2.CS0'.
    WARNING (CMI-2943): Parameter checks have been ignored because the valid value for parameter 'trise' could not be found in 'I0.C8<3>.C1'.
        Further occurrences of this warning will be suppressed.

Convergence achieved in 18 iterations.
DC simulation time: CPU = 2.972 ms, elapsed = 2.97308 ms.
Important parameter values:
    start = 0 s
    outputstart = 0 s
    stop = 40 ms
    step = 40 us
    maxstep = 400 us
    ic = all
    useprevic = no
    skipdc = no
    reltol = 10e-06
    abstol(V) = 1 uV
    abstol(I) = 1 pA
    temp = 85 C
    tnom = 27 C
    tempeffects = all
    errpreset = conservative
    method = gear2only
    lteratio = 10
    relref = alllocal
    cmin = 0 F
    gmin = 1 pS
    rabsshort = 1 mOhm


Notice from spectre during transient analysis `tran', during Monte Carlo analysis `mc1'.
    Multithreading is disabled due to the size of the design being too small.


Output and IC/nodeset summary:
                 save   8       (current)
                 save   87      (voltage)

    tran: time = 1.016 ms    (2.54 %), step = 48.89 us     (122 m%)
    tran: time = 3.03 ms     (7.58 %), step = 47.76 us     (119 m%)
    tran: time = 5.044 ms    (12.6 %), step = 46.88 us     (117 m%)
    tran: time = 7.01 ms     (17.5 %), step = 49.46 us     (124 m%)
    tran: time = 9.024 ms    (22.6 %), step = 48.25 us     (121 m%)
    tran: time = 11.04 ms    (27.6 %), step = 47.25 us     (118 m%)
    tran: time = 13 ms       (32.5 %), step = 50 us        (125 m%)
    tran: time = 15.02 ms    (37.5 %), step = 48.76 us     (122 m%)
    tran: time = 17.03 ms    (42.6 %), step = 47.66 us     (119 m%)
    tran: time = 19.04 ms    (47.6 %), step = 46.8 us      (117 m%)
    tran: time = 21.01 ms    (52.5 %), step = 49.31 us     (123 m%)
    tran: time = 23.03 ms    (57.6 %), step = 48.13 us     (120 m%)
    tran: time = 25.04 ms    (62.6 %), step = 47.16 us     (118 m%)
    tran: time = 27.01 ms    (67.5 %), step = 49.93 us     (125 m%)
    tran: time = 29.02 ms    (72.5 %), step = 48.63 us     (122 m%)
    tran: time = 31.03 ms    (77.6 %), step = 47.55 us     (119 m%)
    tran: time = 33.05 ms    (82.6 %), step = 46.72 us     (117 m%)
    tran: time = 35.01 ms    (87.5 %), step = 49.18 us     (123 m%)
    tran: time = 37.03 ms    (92.6 %), step = 48.01 us     (120 m%)
    tran: time = 39.04 ms    (97.6 %), step = 47.07 us     (118 m%)
Number of accepted tran steps =             851

Maximum value achieved for any signal of each quantity: 
V: V(S<0>) = 3.3 V
I: I(V0:p) = 6.355 uA
Maximum value of each quantity, excluding Verilog-A modules or dangling current sources:
V: V(vout_filt) = 1.614 V
I: I(V0:p) = 6.355 uA

~~~~~~~~~~~~~~~~~~~~~~~~~~~~~~~~~
Post-Transient Simulation Summary
~~~~~~~~~~~~~~~~~~~~~~~~~~~~~~~~~
   -   To further speed up simulation, consider
          add ++aps on command line
   -   Non-default settings that could significantly slow down simulation
          errpreset = conservative, default moderate
          reltol = 10e-06, default 100e-06 (conservative)
~~~~~~~~~~~~~~~~~~~~~~~~~~~~~~~~~


During simulation, the CPU load for active processors is :
         0 (50.5 %)      1 (3.6 %)       2 (5.1 %)       3 (31.3 %)
         4 (23.4 %)      5 (6.3 %)       6 (32.0 %)      7 (35.3 %)
         8 (18.0 %)      9 (100.0 %)    10 (5.4 %)      11 (20.8 %)
        12 (25.4 %)     13 (47.3 %)     14 (3.0 %)      15 (3.3 %)
        16 (37.4 %)     17 (100.0 %)    18 (79.2 %)     19 (19.6 %)
        20 (2.4 %)      21 (4.8 %)      22 (2.1 %)      23 (16.2 %)
        24 (20.2 %)     25 (58.6 %)     26 (10.2 %)     27 (7.4 %)
        28 (28.7 %)     29 (2.1 %)      30 (2.4 %)      31 (99.7 %)
        32 (1.5 %)      33 (3.3 %)      34 (18.0 %)     35 (2.1 %)
        36 (5.4 %)      37 (60.0 %)     38 (29.0 %)     39 (79.8 %)
        40 (22.8 %)     41 (21.7 %)     42 (4.2 %)      43 (66.7 %)
        44 (51.8 %)     45 (27.3 %)     46 (19.6 %)     47 (5.7 %)
        Total: 1320.8%
Initial condition solution time: CPU = 3.008 ms, elapsed = 3.00884 ms.
Intrinsic tran analysis time:    CPU = 507.966 ms, elapsed = 509.739 ms.
Total time required for tran analysis `tran': CPU = 513.106 ms, elapsed = 515.441 ms, util. = 99.5%.
Time accumulated: CPU = 2.81992 s, elapsed = 3.43146 s.
Peak resident memory used = 214 Mbytes.


Notice from spectre during transient analysis `tran', during Monte Carlo analysis `mc1'.
    34 warnings suppressed.

finalTimeOP: writing operating point information to rawfile.

Opening the PSF file ../psf/mc1_separate/003/finalTimeOP.info ...
modelParameter: writing model parameter values to rawfile.

Opening the PSF file ../psf/mc1_separate/003/modelParameter.info ...
element: writing instance parameter values to rawfile.

Opening the PSF file ../psf/mc1_separate/003/element.info ...
outputParameter: writing output parameter values to rawfile.

Opening the PSF file ../psf/mc1_separate/003/outputParameter.info ...
designParamVals: writing netlist parameters to rawfile.

Opening the PSFASCII file ../psf/mc1_separate/003/designParamVals.info ...
primitives: writing primitives to rawfile.

Opening the PSFASCII file ../psf/mc1_separate/003/primitives.info.primitives ...
subckts: writing subcircuits to rawfile.

Opening the PSFASCII file ../psf/mc1_separate/003/subckts.info.subckts ...
    mc1: iteration = 3           (4.08 %), step = 1            (2.04 %)
4   6.12% 

*****************************************************************************************
* 
* INFO: AMS_processOption = C35B4C3
* 
* INFO: Valid Modules  PIP VG5 HIRES
* 
*****************************************************************************************


******************
DC Analysis `dcOp'
******************

Opening the PSF file ../psf/mc1_separate/004/dcOp.dc ...
Important parameter values:
    reltol = 100e-06
    abstol(V) = 1 uV
    abstol(I) = 1 pA
    temp = 85 C
    tnom = 27 C
    tempeffects = all
    gmindc = 1 pS
    rabsshort = 1 mOhm

Notice from spectre during DC analysis `dcOp', during Monte Carlo analysis `mc1'.
    Bad pivoting is found during DC analysis. Option dc_pivot_check=yes is recommended for possible improvement of convergence.


Maximum value achieved for any signal of each quantity: 
V: V(S<0>) = 3.3 V
I: I(V0:p) = 6.491 uA
Maximum value of each quantity, excluding Verilog-A modules or dangling current sources:
V: V(net1) = 1.6 V
I: I(V0:p) = 6.491 uA

Warning from spectre during check, during DC analysis `dcOp', during Monte Carlo analysis `mc1'.
    WARNING (CMI-2943): Parameter checks have been ignored because the valid value for parameter 'trise' could not be found in 'C1'.
    WARNING (CMI-2943): Parameter checks have been ignored because the valid value for parameter 'trise' could not be found in 'I0.R2.CM'.
    WARNING (CMI-2943): Parameter checks have been ignored because the valid value for parameter 'trise' could not be found in 'I0.R2.CS1'.
    WARNING (CMI-2943): Parameter checks have been ignored because the valid value for parameter 'trise' could not be found in 'I0.R2.CS0'.
    WARNING (CMI-2943): Parameter checks have been ignored because the valid value for parameter 'trise' could not be found in 'I0.C8<3>.C1'.
        Further occurrences of this warning will be suppressed.

Convergence achieved in 18 iterations.
DC simulation time: CPU = 5.911 ms, elapsed = 7.18117 ms.
Total time required for dc analysis `dcOp': CPU = 6.414 ms, elapsed = 7.68304 ms, util. = 83.5%.
Time accumulated: CPU = 2.86553 s, elapsed = 3.49032 s.
Peak resident memory used = 214 Mbytes.


Notice from spectre during Monte Carlo analysis `mc1'.
    34 warnings suppressed.

dcOpInfo: writing operating point information to rawfile.

Opening the PSF file ../psf/mc1_separate/004/dcOpInfo.info ...

************************************************
Transient Analysis `tran': time = (0 s -> 40 ms)
************************************************

Opening the PSF file ../psf/mc1_separate/004/tran.tran.tran ...

Notice from spectre during IC analysis, during transient analysis `tran', during Monte Carlo analysis `mc1'.
    Bad pivoting is found during DC analysis. Option dc_pivot_check=yes is recommended for possible improvement of convergence.
Warning from spectre during check, during IC analysis, during transient analysis `tran', during Monte Carlo analysis `mc1'.
    WARNING (CMI-2943): Parameter checks have been ignored because the valid value for parameter 'trise' could not be found in 'C1'.
    WARNING (CMI-2943): Parameter checks have been ignored because the valid value for parameter 'trise' could not be found in 'I0.R2.CM'.
    WARNING (CMI-2943): Parameter checks have been ignored because the valid value for parameter 'trise' could not be found in 'I0.R2.CS1'.
    WARNING (CMI-2943): Parameter checks have been ignored because the valid value for parameter 'trise' could not be found in 'I0.R2.CS0'.
    WARNING (CMI-2943): Parameter checks have been ignored because the valid value for parameter 'trise' could not be found in 'I0.C8<3>.C1'.
        Further occurrences of this warning will be suppressed.

Convergence achieved in 18 iterations.
DC simulation time: CPU = 3.006 ms, elapsed = 3.00598 ms.
Important parameter values:
    start = 0 s
    outputstart = 0 s
    stop = 40 ms
    step = 40 us
    maxstep = 400 us
    ic = all
    useprevic = no
    skipdc = no
    reltol = 10e-06
    abstol(V) = 1 uV
    abstol(I) = 1 pA
    temp = 85 C
    tnom = 27 C
    tempeffects = all
    errpreset = conservative
    method = gear2only
    lteratio = 10
    relref = alllocal
    cmin = 0 F
    gmin = 1 pS
    rabsshort = 1 mOhm


Notice from spectre during transient analysis `tran', during Monte Carlo analysis `mc1'.
    Multithreading is disabled due to the size of the design being too small.


Output and IC/nodeset summary:
                 save   8       (current)
                 save   87      (voltage)

    tran: time = 1.017 ms    (2.54 %), step = 48.84 us     (122 m%)
    tran: time = 3.03 ms     (7.58 %), step = 47.74 us     (119 m%)
    tran: time = 5.043 ms    (12.6 %), step = 46.87 us     (117 m%)
    tran: time = 7.01 ms     (17.5 %), step = 49.48 us     (124 m%)
    tran: time = 9.023 ms    (22.6 %), step = 48.28 us     (121 m%)
    tran: time = 11.04 ms    (27.6 %), step = 47.29 us     (118 m%)
    tran: time = 13 ms       (32.5 %), step = 50 us        (125 m%)
    tran: time = 15.02 ms    (37.5 %), step = 48.87 us     (122 m%)
    tran: time = 17.03 ms    (42.6 %), step = 47.76 us     (119 m%)
    tran: time = 19.04 ms    (47.6 %), step = 46.89 us     (117 m%)
    tran: time = 21.01 ms    (52.5 %), step = 49.51 us     (124 m%)
    tran: time = 23.02 ms    (57.6 %), step = 48.3 us      (121 m%)
    tran: time = 25.04 ms    (62.6 %), step = 47.31 us     (118 m%)
    tran: time = 27 ms       (67.5 %), step = 50 us        (125 m%)
    tran: time = 29.02 ms    (72.5 %), step = 48.89 us     (122 m%)
    tran: time = 31.03 ms    (77.6 %), step = 47.78 us     (119 m%)
    tran: time = 33.04 ms    (82.6 %), step = 46.91 us     (117 m%)
    tran: time = 35.01 ms    (87.5 %), step = 49.53 us     (124 m%)
    tran: time = 37.02 ms    (92.6 %), step = 48.33 us     (121 m%)
    tran: time = 39.04 ms    (97.6 %), step = 47.33 us     (118 m%)
Number of accepted tran steps =             852

Maximum value achieved for any signal of each quantity: 
V: V(S<0>) = 3.3 V
I: I(V0:p) = 6.492 uA
Maximum value of each quantity, excluding Verilog-A modules or dangling current sources:
V: V(vout_filt) = 1.613 V
I: I(V0:p) = 6.492 uA

~~~~~~~~~~~~~~~~~~~~~~~~~~~~~~~~~
Post-Transient Simulation Summary
~~~~~~~~~~~~~~~~~~~~~~~~~~~~~~~~~
   -   To further speed up simulation, consider
          add ++aps on command line
   -   Non-default settings that could significantly slow down simulation
          errpreset = conservative, default moderate
          reltol = 10e-06, default 100e-06 (conservative)
~~~~~~~~~~~~~~~~~~~~~~~~~~~~~~~~~


During simulation, the CPU load for active processors is :
         0 (43.7 %)      1 (3.6 %)       2 (4.6 %)       3 (27.2 %)
         4 (20.1 %)      5 (6.9 %)       6 (42.2 %)      7 (30.4 %)
         8 (29.8 %)      9 (100.0 %)    10 (4.8 %)      11 (20.6 %)
        12 (22.6 %)     13 (41.2 %)     14 (2.6 %)      15 (3.6 %)
        16 (32.0 %)     17 (100.0 %)    18 (81.3 %)     19 (31.6 %)
        20 (2.1 %)      21 (5.9 %)      22 (2.3 %)      23 (14.3 %)
        24 (20.4 %)     25 (50.9 %)     26 (9.2 %)      27 (6.8 %)
        28 (25.4 %)     29 (2.1 %)      30 (2.0 %)      31 (99.7 %)
        32 (2.8 %)      33 (3.9 %)      34 (29.3 %)     35 (1.8 %)
        36 (6.2 %)      37 (66.0 %)     38 (25.3 %)     39 (68.7 %)
        40 (33.6 %)     41 (21.5 %)     42 (4.6 %)      43 (57.6 %)
        44 (45.4 %)     45 (38.3 %)     46 (31.5 %)     47 (5.1 %)
        Total: 1331.4%
Initial condition solution time: CPU = 3.051 ms, elapsed = 3.0539 ms.
Intrinsic tran analysis time:    CPU = 513.617 ms, elapsed = 515.05 ms.
Total time required for tran analysis `tran': CPU = 518.927 ms, elapsed = 520.94 ms, util. = 99.6%.
Time accumulated: CPU = 3.39201 s, elapsed = 4.02141 s.
Peak resident memory used = 214 Mbytes.


Notice from spectre during transient analysis `tran', during Monte Carlo analysis `mc1'.
    34 warnings suppressed.

finalTimeOP: writing operating point information to rawfile.

Opening the PSF file ../psf/mc1_separate/004/finalTimeOP.info ...
modelParameter: writing model parameter values to rawfile.

Opening the PSF file ../psf/mc1_separate/004/modelParameter.info ...
element: writing instance parameter values to rawfile.

Opening the PSF file ../psf/mc1_separate/004/element.info ...
outputParameter: writing output parameter values to rawfile.

Opening the PSF file ../psf/mc1_separate/004/outputParameter.info ...
designParamVals: writing netlist parameters to rawfile.

Opening the PSFASCII file ../psf/mc1_separate/004/designParamVals.info ...
primitives: writing primitives to rawfile.

Opening the PSFASCII file ../psf/mc1_separate/004/primitives.info.primitives ...
subckts: writing subcircuits to rawfile.

Opening the PSFASCII file ../psf/mc1_separate/004/subckts.info.subckts ...
    mc1: iteration = 4           (6.12 %), step = 1            (2.04 %)
5   8.16% 

*****************************************************************************************
* 
* INFO: AMS_processOption = C35B4C3
* 
* INFO: Valid Modules  PIP VG5 HIRES
* 
*****************************************************************************************


******************
DC Analysis `dcOp'
******************

Opening the PSF file ../psf/mc1_separate/005/dcOp.dc ...
Important parameter values:
    reltol = 100e-06
    abstol(V) = 1 uV
    abstol(I) = 1 pA
    temp = 85 C
    tnom = 27 C
    tempeffects = all
    gmindc = 1 pS
    rabsshort = 1 mOhm

Notice from spectre during DC analysis `dcOp', during Monte Carlo analysis `mc1'.
    Bad pivoting is found during DC analysis. Option dc_pivot_check=yes is recommended for possible improvement of convergence.


Maximum value achieved for any signal of each quantity: 
V: V(S<0>) = 3.3 V
I: I(V0:p) = 6.407 uA
Maximum value of each quantity, excluding Verilog-A modules or dangling current sources:
V: V(vout_filt) = 1.6 V
I: I(V0:p) = 6.407 uA

Warning from spectre during check, during DC analysis `dcOp', during Monte Carlo analysis `mc1'.
    WARNING (CMI-2943): Parameter checks have been ignored because the valid value for parameter 'trise' could not be found in 'C1'.
    WARNING (CMI-2943): Parameter checks have been ignored because the valid value for parameter 'trise' could not be found in 'I0.R2.CM'.
    WARNING (CMI-2943): Parameter checks have been ignored because the valid value for parameter 'trise' could not be found in 'I0.R2.CS1'.
    WARNING (CMI-2943): Parameter checks have been ignored because the valid value for parameter 'trise' could not be found in 'I0.R2.CS0'.
    WARNING (CMI-2943): Parameter checks have been ignored because the valid value for parameter 'trise' could not be found in 'I0.C8<3>.C1'.
        Further occurrences of this warning will be suppressed.

Convergence achieved in 18 iterations.
DC simulation time: CPU = 6.013 ms, elapsed = 7.32207 ms.
Total time required for dc analysis `dcOp': CPU = 6.572 ms, elapsed = 7.87997 ms, util. = 83.4%.
Time accumulated: CPU = 3.44179 s, elapsed = 4.08272 s.
Peak resident memory used = 214 Mbytes.


Notice from spectre during Monte Carlo analysis `mc1'.
    34 warnings suppressed.

dcOpInfo: writing operating point information to rawfile.

Opening the PSF file ../psf/mc1_separate/005/dcOpInfo.info ...

************************************************
Transient Analysis `tran': time = (0 s -> 40 ms)
************************************************

Opening the PSF file ../psf/mc1_separate/005/tran.tran.tran ...

Notice from spectre during IC analysis, during transient analysis `tran', during Monte Carlo analysis `mc1'.
    Bad pivoting is found during DC analysis. Option dc_pivot_check=yes is recommended for possible improvement of convergence.
Warning from spectre during check, during IC analysis, during transient analysis `tran', during Monte Carlo analysis `mc1'.
    WARNING (CMI-2943): Parameter checks have been ignored because the valid value for parameter 'trise' could not be found in 'C1'.
    WARNING (CMI-2943): Parameter checks have been ignored because the valid value for parameter 'trise' could not be found in 'I0.R2.CM'.
    WARNING (CMI-2943): Parameter checks have been ignored because the valid value for parameter 'trise' could not be found in 'I0.R2.CS1'.
    WARNING (CMI-2943): Parameter checks have been ignored because the valid value for parameter 'trise' could not be found in 'I0.R2.CS0'.
    WARNING (CMI-2943): Parameter checks have been ignored because the valid value for parameter 'trise' could not be found in 'I0.C8<3>.C1'.
        Further occurrences of this warning will be suppressed.

Convergence achieved in 18 iterations.
DC simulation time: CPU = 2.689 ms, elapsed = 2.68912 ms.
Important parameter values:
    start = 0 s
    outputstart = 0 s
    stop = 40 ms
    step = 40 us
    maxstep = 400 us
    ic = all
    useprevic = no
    skipdc = no
    reltol = 10e-06
    abstol(V) = 1 uV
    abstol(I) = 1 pA
    temp = 85 C
    tnom = 27 C
    tempeffects = all
    errpreset = conservative
    method = gear2only
    lteratio = 10
    relref = alllocal
    cmin = 0 F
    gmin = 1 pS
    rabsshort = 1 mOhm


Notice from spectre during transient analysis `tran', during Monte Carlo analysis `mc1'.
    Multithreading is disabled due to the size of the design being too small.


Output and IC/nodeset summary:
                 save   8       (current)
                 save   87      (voltage)

    tran: time = 1.017 ms    (2.54 %), step = 48.85 us     (122 m%)
    tran: time = 3.031 ms    (7.58 %), step = 47.71 us     (119 m%)
    tran: time = 5.044 ms    (12.6 %), step = 46.84 us     (117 m%)
    tran: time = 7.012 ms    (17.5 %), step = 49.36 us     (123 m%)
    tran: time = 9.025 ms    (22.6 %), step = 48.15 us     (120 m%)
    tran: time = 11.04 ms    (27.6 %), step = 47.16 us     (118 m%)
    tran: time = 13.01 ms    (32.5 %), step = 49.93 us     (125 m%)
    tran: time = 15.02 ms    (37.5 %), step = 48.61 us     (122 m%)
    tran: time = 17.03 ms    (42.6 %), step = 47.53 us     (119 m%)
    tran: time = 19 ms       (47.5 %), step = 50 us        (125 m%)
    tran: time = 21.01 ms    (52.5 %), step = 49.12 us     (123 m%)
    tran: time = 23.03 ms    (57.6 %), step = 47.94 us     (120 m%)
    tran: time = 25.04 ms    (62.6 %), step = 47.01 us     (118 m%)
    tran: time = 27.01 ms    (67.5 %), step = 49.66 us     (124 m%)
    tran: time = 29.02 ms    (72.6 %), step = 48.4 us      (121 m%)
    tran: time = 31.04 ms    (77.6 %), step = 47.36 us     (118 m%)
    tran: time = 33 ms       (82.5 %), step = 50 us        (125 m%)
    tran: time = 35.02 ms    (87.5 %), step = 48.88 us     (122 m%)
    tran: time = 37.03 ms    (92.6 %), step = 47.74 us     (119 m%)
    tran: time = 39.04 ms    (97.6 %), step = 46.86 us     (117 m%)
Number of accepted tran steps =             851

Maximum value achieved for any signal of each quantity: 
V: V(S<0>) = 3.3 V
I: I(V0:p) = 6.408 uA
Maximum value of each quantity, excluding Verilog-A modules or dangling current sources:
V: V(vout_filt) = 1.614 V
I: I(V0:p) = 6.408 uA

~~~~~~~~~~~~~~~~~~~~~~~~~~~~~~~~~
Post-Transient Simulation Summary
~~~~~~~~~~~~~~~~~~~~~~~~~~~~~~~~~
   -   To further speed up simulation, consider
          add ++aps on command line
   -   Non-default settings that could significantly slow down simulation
          errpreset = conservative, default moderate
          reltol = 10e-06, default 100e-06 (conservative)
~~~~~~~~~~~~~~~~~~~~~~~~~~~~~~~~~


During simulation, the CPU load for active processors is :
         0 (44.3 %)      1 (3.6 %)       2 (7.1 %)       3 (23.9 %)
         4 (18.0 %)      5 (6.9 %)       6 (49.8 %)      7 (26.7 %)
         8 (31.9 %)      9 (100.0 %)    10 (5.3 %)      11 (20.5 %)
        12 (20.7 %)     13 (35.9 %)     14 (3.1 %)      15 (3.6 %)
        16 (28.3 %)     17 (100.0 %)    18 (83.7 %)     19 (38.0 %)
        20 (4.5 %)      21 (5.3 %)      22 (2.2 %)      23 (13.6 %)
        24 (30.8 %)     25 (45.2 %)     26 (8.7 %)      27 (6.6 %)
        28 (34.1 %)     29 (2.4 %)      30 (3.5 %)      31 (99.8 %)
        32 (2.9 %)      33 (6.5 %)      34 (26.4 %)     35 (2.0 %)
        36 (5.8 %)      37 (61.1 %)     38 (22.6 %)     39 (60.3 %)
        40 (42.1 %)     41 (21.6 %)     42 (5.3 %)      43 (50.7 %)
        44 (52.1 %)     45 (46.3 %)     46 (27.7 %)     47 (4.7 %)
        Total: 1346.2%
Initial condition solution time: CPU = 2.721 ms, elapsed = 2.72298 ms.
Intrinsic tran analysis time:    CPU = 512.403 ms, elapsed = 514.15 ms.
Total time required for tran analysis `tran': CPU = 516.936 ms, elapsed = 519.336 ms, util. = 99.5%.
Time accumulated: CPU = 3.96584 s, elapsed = 4.61157 s.
Peak resident memory used = 214 Mbytes.


Notice from spectre during transient analysis `tran', during Monte Carlo analysis `mc1'.
    34 warnings suppressed.

finalTimeOP: writing operating point information to rawfile.

Opening the PSF file ../psf/mc1_separate/005/finalTimeOP.info ...
modelParameter: writing model parameter values to rawfile.

Opening the PSF file ../psf/mc1_separate/005/modelParameter.info ...
element: writing instance parameter values to rawfile.

Opening the PSF file ../psf/mc1_separate/005/element.info ...
outputParameter: writing output parameter values to rawfile.

Opening the PSF file ../psf/mc1_separate/005/outputParameter.info ...
designParamVals: writing netlist parameters to rawfile.

Opening the PSFASCII file ../psf/mc1_separate/005/designParamVals.info ...
primitives: writing primitives to rawfile.

Opening the PSFASCII file ../psf/mc1_separate/005/primitives.info.primitives ...
subckts: writing subcircuits to rawfile.

Opening the PSFASCII file ../psf/mc1_separate/005/subckts.info.subckts ...
    mc1: iteration = 5           (8.16 %), step = 1            (2.04 %)
6  10.20% 

*****************************************************************************************
* 
* INFO: AMS_processOption = C35B4C3
* 
* INFO: Valid Modules  PIP VG5 HIRES
* 
*****************************************************************************************


******************
DC Analysis `dcOp'
******************

Opening the PSF file ../psf/mc1_separate/006/dcOp.dc ...
Important parameter values:
    reltol = 100e-06
    abstol(V) = 1 uV
    abstol(I) = 1 pA
    temp = 85 C
    tnom = 27 C
    tempeffects = all
    gmindc = 1 pS
    rabsshort = 1 mOhm

Notice from spectre during DC analysis `dcOp', during Monte Carlo analysis `mc1'.
    Bad pivoting is found during DC analysis. Option dc_pivot_check=yes is recommended for possible improvement of convergence.


Maximum value achieved for any signal of each quantity: 
V: V(S<0>) = 3.3 V
I: I(V0:p) = 6.434 uA
Maximum value of each quantity, excluding Verilog-A modules or dangling current sources:
V: V(net1) = 1.6 V
I: I(V0:p) = 6.434 uA

Warning from spectre during check, during DC analysis `dcOp', during Monte Carlo analysis `mc1'.
    WARNING (CMI-2943): Parameter checks have been ignored because the valid value for parameter 'trise' could not be found in 'C1'.
    WARNING (CMI-2943): Parameter checks have been ignored because the valid value for parameter 'trise' could not be found in 'I0.R2.CM'.
    WARNING (CMI-2943): Parameter checks have been ignored because the valid value for parameter 'trise' could not be found in 'I0.R2.CS1'.
    WARNING (CMI-2943): Parameter checks have been ignored because the valid value for parameter 'trise' could not be found in 'I0.R2.CS0'.
    WARNING (CMI-2943): Parameter checks have been ignored because the valid value for parameter 'trise' could not be found in 'I0.C8<3>.C1'.
        Further occurrences of this warning will be suppressed.

Convergence achieved in 18 iterations.
DC simulation time: CPU = 5.351 ms, elapsed = 6.61898 ms.
Total time required for dc analysis `dcOp': CPU = 5.855 ms, elapsed = 7.12299 ms, util. = 82.2%.
Time accumulated: CPU = 4.01017 s, elapsed = 4.66851 s.
Peak resident memory used = 214 Mbytes.


Notice from spectre during Monte Carlo analysis `mc1'.
    34 warnings suppressed.

dcOpInfo: writing operating point information to rawfile.

Opening the PSF file ../psf/mc1_separate/006/dcOpInfo.info ...

************************************************
Transient Analysis `tran': time = (0 s -> 40 ms)
************************************************

Opening the PSF file ../psf/mc1_separate/006/tran.tran.tran ...

Notice from spectre during IC analysis, during transient analysis `tran', during Monte Carlo analysis `mc1'.
    Bad pivoting is found during DC analysis. Option dc_pivot_check=yes is recommended for possible improvement of convergence.
Warning from spectre during check, during IC analysis, during transient analysis `tran', during Monte Carlo analysis `mc1'.
    WARNING (CMI-2943): Parameter checks have been ignored because the valid value for parameter 'trise' could not be found in 'C1'.
    WARNING (CMI-2943): Parameter checks have been ignored because the valid value for parameter 'trise' could not be found in 'I0.R2.CM'.
    WARNING (CMI-2943): Parameter checks have been ignored because the valid value for parameter 'trise' could not be found in 'I0.R2.CS1'.
    WARNING (CMI-2943): Parameter checks have been ignored because the valid value for parameter 'trise' could not be found in 'I0.R2.CS0'.
    WARNING (CMI-2943): Parameter checks have been ignored because the valid value for parameter 'trise' could not be found in 'I0.C8<3>.C1'.
        Further occurrences of this warning will be suppressed.

Convergence achieved in 18 iterations.
DC simulation time: CPU = 2.666 ms, elapsed = 2.666 ms.
Important parameter values:
    start = 0 s
    outputstart = 0 s
    stop = 40 ms
    step = 40 us
    maxstep = 400 us
    ic = all
    useprevic = no
    skipdc = no
    reltol = 10e-06
    abstol(V) = 1 uV
    abstol(I) = 1 pA
    temp = 85 C
    tnom = 27 C
    tempeffects = all
    errpreset = conservative
    method = gear2only
    lteratio = 10
    relref = alllocal
    cmin = 0 F
    gmin = 1 pS
    rabsshort = 1 mOhm


Notice from spectre during transient analysis `tran', during Monte Carlo analysis `mc1'.
    Multithreading is disabled due to the size of the design being too small.


Output and IC/nodeset summary:
                 save   8       (current)
                 save   87      (voltage)

    tran: time = 1.017 ms    (2.54 %), step = 48.84 us     (122 m%)
    tran: time = 3.03 ms     (7.58 %), step = 47.73 us     (119 m%)
    tran: time = 5.044 ms    (12.6 %), step = 46.86 us     (117 m%)
    tran: time = 7.011 ms    (17.5 %), step = 49.44 us     (124 m%)
    tran: time = 9.024 ms    (22.6 %), step = 48.24 us     (121 m%)
    tran: time = 11.04 ms    (27.6 %), step = 47.25 us     (118 m%)
    tran: time = 13 ms       (32.5 %), step = 50 us        (125 m%)
    tran: time = 15.02 ms    (37.5 %), step = 48.79 us     (122 m%)
    tran: time = 17.03 ms    (42.6 %), step = 47.69 us     (119 m%)
    tran: time = 19.04 ms    (47.6 %), step = 46.83 us     (117 m%)
    tran: time = 21.01 ms    (52.5 %), step = 49.39 us     (123 m%)
    tran: time = 23.02 ms    (57.6 %), step = 48.2 us      (120 m%)
    tran: time = 25.04 ms    (62.6 %), step = 47.22 us     (118 m%)
    tran: time = 27 ms       (67.5 %), step = 50 us        (125 m%)
    tran: time = 29.02 ms    (72.5 %), step = 48.74 us     (122 m%)
    tran: time = 31.03 ms    (77.6 %), step = 47.65 us     (119 m%)
    tran: time = 33.04 ms    (82.6 %), step = 46.8 us      (117 m%)
    tran: time = 35.01 ms    (87.5 %), step = 49.33 us     (123 m%)
    tran: time = 37.02 ms    (92.6 %), step = 48.15 us     (120 m%)
    tran: time = 39.04 ms    (97.6 %), step = 47.18 us     (118 m%)
Number of accepted tran steps =             852

Maximum value achieved for any signal of each quantity: 
V: V(S<0>) = 3.3 V
I: I(V0:p) = 6.434 uA
Maximum value of each quantity, excluding Verilog-A modules or dangling current sources:
V: V(vout_filt) = 1.613 V
I: I(V0:p) = 6.434 uA

~~~~~~~~~~~~~~~~~~~~~~~~~~~~~~~~~
Post-Transient Simulation Summary
~~~~~~~~~~~~~~~~~~~~~~~~~~~~~~~~~
   -   To further speed up simulation, consider
          add ++aps on command line
   -   Non-default settings that could significantly slow down simulation
          errpreset = conservative, default moderate
          reltol = 10e-06, default 100e-06 (conservative)
~~~~~~~~~~~~~~~~~~~~~~~~~~~~~~~~~


During simulation, the CPU load for active processors is :
         0 (41.1 %)      1 (13.1 %)      2 (6.5 %)       3 (21.6 %)
         4 (16.3 %)      5 (6.3 %)       6 (55.5 %)      7 (23.9 %)
         8 (28.8 %)      9 (93.8 %)     10 (4.7 %)      11 (21.2 %)
        12 (19.5 %)     13 (32.2 %)     14 (3.0 %)      15 (4.1 %)
        16 (25.3 %)     17 (100.0 %)    18 (82.0 %)     19 (33.9 %)
        20 (15.1 %)     21 (5.1 %)      22 (2.2 %)      23 (12.6 %)
        24 (31.1 %)     25 (40.5 %)     26 (7.9 %)      27 (6.1 %)
        28 (39.3 %)     29 (2.6 %)      30 (3.5 %)      31 (99.8 %)
        32 (3.2 %)      33 (5.8 %)      34 (28.9 %)     35 (2.0 %)
        36 (5.6 %)      37 (54.7 %)     38 (20.8 %)     39 (53.8 %)
        40 (48.0 %)     41 (19.7 %)     42 (7.3 %)      43 (45.4 %)
        44 (46.9 %)     45 (52.5 %)     46 (25.1 %)     47 (15.2 %)
        Total: 1333.5%
Initial condition solution time: CPU = 2.698 ms, elapsed = 2.69914 ms.
Intrinsic tran analysis time:    CPU = 506.91 ms, elapsed = 508.351 ms.
Total time required for tran analysis `tran': CPU = 511.433 ms, elapsed = 513.446 ms, util. = 99.6%.
Time accumulated: CPU = 4.52859 s, elapsed = 5.19119 s.
Peak resident memory used = 214 Mbytes.


Notice from spectre during transient analysis `tran', during Monte Carlo analysis `mc1'.
    34 warnings suppressed.

finalTimeOP: writing operating point information to rawfile.

Opening the PSF file ../psf/mc1_separate/006/finalTimeOP.info ...
modelParameter: writing model parameter values to rawfile.

Opening the PSF file ../psf/mc1_separate/006/modelParameter.info ...
element: writing instance parameter values to rawfile.

Opening the PSF file ../psf/mc1_separate/006/element.info ...
outputParameter: writing output parameter values to rawfile.

Opening the PSF file ../psf/mc1_separate/006/outputParameter.info ...
designParamVals: writing netlist parameters to rawfile.

Opening the PSFASCII file ../psf/mc1_separate/006/designParamVals.info ...
primitives: writing primitives to rawfile.

Opening the PSFASCII file ../psf/mc1_separate/006/primitives.info.primitives ...
subckts: writing subcircuits to rawfile.

Opening the PSFASCII file ../psf/mc1_separate/006/subckts.info.subckts ...
    mc1: iteration = 6           (10.2 %), step = 1            (2.04 %)
7  12.24% 

*****************************************************************************************
* 
* INFO: AMS_processOption = C35B4C3
* 
* INFO: Valid Modules  PIP VG5 HIRES
* 
*****************************************************************************************


******************
DC Analysis `dcOp'
******************

Opening the PSF file ../psf/mc1_separate/007/dcOp.dc ...
Important parameter values:
    reltol = 100e-06
    abstol(V) = 1 uV
    abstol(I) = 1 pA
    temp = 85 C
    tnom = 27 C
    tempeffects = all
    gmindc = 1 pS
    rabsshort = 1 mOhm

Notice from spectre during DC analysis `dcOp', during Monte Carlo analysis `mc1'.
    Bad pivoting is found during DC analysis. Option dc_pivot_check=yes is recommended for possible improvement of convergence.


Maximum value achieved for any signal of each quantity: 
V: V(S<0>) = 3.3 V
I: I(V0:p) = 6.575 uA
Maximum value of each quantity, excluding Verilog-A modules or dangling current sources:
V: V(vout_filt) = 1.601 V
I: I(V0:p) = 6.575 uA

Warning from spectre during check, during DC analysis `dcOp', during Monte Carlo analysis `mc1'.
    WARNING (CMI-2943): Parameter checks have been ignored because the valid value for parameter 'trise' could not be found in 'C1'.
    WARNING (CMI-2943): Parameter checks have been ignored because the valid value for parameter 'trise' could not be found in 'I0.R2.CM'.
    WARNING (CMI-2943): Parameter checks have been ignored because the valid value for parameter 'trise' could not be found in 'I0.R2.CS1'.
    WARNING (CMI-2943): Parameter checks have been ignored because the valid value for parameter 'trise' could not be found in 'I0.R2.CS0'.
    WARNING (CMI-2943): Parameter checks have been ignored because the valid value for parameter 'trise' could not be found in 'I0.C8<3>.C1'.
        Further occurrences of this warning will be suppressed.

Convergence achieved in 18 iterations.
DC simulation time: CPU = 5.41 ms, elapsed = 6.93297 ms.
Total time required for dc analysis `dcOp': CPU = 5.885 ms, elapsed = 7.406 ms, util. = 79.5%.
Time accumulated: CPU = 4.57212 s, elapsed = 5.24591 s.
Peak resident memory used = 214 Mbytes.


Notice from spectre during Monte Carlo analysis `mc1'.
    34 warnings suppressed.

dcOpInfo: writing operating point information to rawfile.

Opening the PSF file ../psf/mc1_separate/007/dcOpInfo.info ...

************************************************
Transient Analysis `tran': time = (0 s -> 40 ms)
************************************************

Opening the PSF file ../psf/mc1_separate/007/tran.tran.tran ...

Notice from spectre during IC analysis, during transient analysis `tran', during Monte Carlo analysis `mc1'.
    Bad pivoting is found during DC analysis. Option dc_pivot_check=yes is recommended for possible improvement of convergence.
Warning from spectre during check, during IC analysis, during transient analysis `tran', during Monte Carlo analysis `mc1'.
    WARNING (CMI-2943): Parameter checks have been ignored because the valid value for parameter 'trise' could not be found in 'C1'.
    WARNING (CMI-2943): Parameter checks have been ignored because the valid value for parameter 'trise' could not be found in 'I0.R2.CM'.
    WARNING (CMI-2943): Parameter checks have been ignored because the valid value for parameter 'trise' could not be found in 'I0.R2.CS1'.
    WARNING (CMI-2943): Parameter checks have been ignored because the valid value for parameter 'trise' could not be found in 'I0.R2.CS0'.
    WARNING (CMI-2943): Parameter checks have been ignored because the valid value for parameter 'trise' could not be found in 'I0.C8<3>.C1'.
        Further occurrences of this warning will be suppressed.

Convergence achieved in 18 iterations.
DC simulation time: CPU = 2.691 ms, elapsed = 2.69198 ms.
Important parameter values:
    start = 0 s
    outputstart = 0 s
    stop = 40 ms
    step = 40 us
    maxstep = 400 us
    ic = all
    useprevic = no
    skipdc = no
    reltol = 10e-06
    abstol(V) = 1 uV
    abstol(I) = 1 pA
    temp = 85 C
    tnom = 27 C
    tempeffects = all
    errpreset = conservative
    method = gear2only
    lteratio = 10
    relref = alllocal
    cmin = 0 F
    gmin = 1 pS
    rabsshort = 1 mOhm


Notice from spectre during transient analysis `tran', during Monte Carlo analysis `mc1'.
    Multithreading is disabled due to the size of the design being too small.


Output and IC/nodeset summary:
                 save   8       (current)
                 save   87      (voltage)

    tran: time = 1.017 ms    (2.54 %), step = 48.82 us     (122 m%)
    tran: time = 3.031 ms    (7.58 %), step = 47.68 us     (119 m%)
    tran: time = 5.045 ms    (12.6 %), step = 46.81 us     (117 m%)
    tran: time = 7.012 ms    (17.5 %), step = 49.3 us      (123 m%)
    tran: time = 9.026 ms    (22.6 %), step = 48.09 us     (120 m%)
    tran: time = 11.04 ms    (27.6 %), step = 47.12 us     (118 m%)
    tran: time = 13.01 ms    (32.5 %), step = 49.83 us     (125 m%)
    tran: time = 15.02 ms    (37.6 %), step = 48.53 us     (121 m%)
    tran: time = 17.03 ms    (42.6 %), step = 47.46 us     (119 m%)
    tran: time = 19 ms       (47.5 %), step = 50 us        (125 m%)
    tran: time = 21.02 ms    (52.5 %), step = 49 us        (123 m%)
    tran: time = 23.03 ms    (57.6 %), step = 47.83 us     (120 m%)
    tran: time = 25.04 ms    (62.6 %), step = 46.92 us     (117 m%)
    tran: time = 27.01 ms    (67.5 %), step = 49.5 us      (124 m%)
    tran: time = 29.02 ms    (72.6 %), step = 48.26 us     (121 m%)
    tran: time = 31.04 ms    (77.6 %), step = 47.24 us     (118 m%)
    tran: time = 33 ms       (82.5 %), step = 50 us        (125 m%)
    tran: time = 35.02 ms    (87.5 %), step = 48.7 us      (122 m%)
    tran: time = 37.03 ms    (92.6 %), step = 47.59 us     (119 m%)
    tran: time = 39.05 ms    (97.6 %), step = 46.74 us     (117 m%)
Number of accepted tran steps =             851

[...]
Initial condition solution time: CPU = 2.815 ms, elapsed = 2.81715 ms.
Intrinsic tran analysis time:    CPU = 527.558 ms, elapsed = 529.286 ms.
Total time required for tran analysis `tran': CPU = 532.163 ms, elapsed = 534.388 ms, util. = 99.6%.
Time accumulated: CPU = 28.437 s, elapsed = 29.8278 s.
Peak resident memory used = 215 Mbytes.


Notice from spectre during transient analysis `tran', during Monte Carlo analysis `mc1'.
    34 warnings suppressed.

finalTimeOP: writing operating point information to rawfile.

Opening the PSF file ../psf/mc1_separate/048/finalTimeOP.info ...
modelParameter: writing model parameter values to rawfile.

Opening the PSF file ../psf/mc1_separate/048/modelParameter.info ...
element: writing instance parameter values to rawfile.

Opening the PSF file ../psf/mc1_separate/048/element.info ...
outputParameter: writing output parameter values to rawfile.

Opening the PSF file ../psf/mc1_separate/048/outputParameter.info ...
designParamVals: writing netlist parameters to rawfile.

Opening the PSFASCII file ../psf/mc1_separate/048/designParamVals.info ...
primitives: writing primitives to rawfile.

Opening the PSFASCII file ../psf/mc1_separate/048/primitives.info.primitives ...
subckts: writing subcircuits to rawfile.

Opening the PSFASCII file ../psf/mc1_separate/048/subckts.info.subckts ...
    mc1: iteration = 48          (95.9 %), step = 1            (2.04 %)
49  97.96% 

*****************************************************************************************
* 
* INFO: AMS_processOption = C35B4C3
* 
* INFO: Valid Modules  PIP VG5 HIRES
* 
*****************************************************************************************


******************
DC Analysis `dcOp'
******************

Opening the PSF file ../psf/mc1_separate/049/dcOp.dc ...
Important parameter values:
    reltol = 100e-06
    abstol(V) = 1 uV
    abstol(I) = 1 pA
    temp = 85 C
    tnom = 27 C
    tempeffects = all
    gmindc = 1 pS
    rabsshort = 1 mOhm

Notice from spectre during DC analysis `dcOp', during Monte Carlo analysis `mc1'.
    Bad pivoting is found during DC analysis. Option dc_pivot_check=yes is recommended for possible improvement of convergence.


Maximum value achieved for any signal of each quantity: 
V: V(S<0>) = 3.3 V
I: I(V0:p) = 6.464 uA
Maximum value of each quantity, excluding Verilog-A modules or dangling current sources:
V: V(vout_filt) = 1.6 V
I: I(V0:p) = 6.464 uA

Warning from spectre during check, during DC analysis `dcOp', during Monte Carlo analysis `mc1'.
    WARNING (CMI-2943): Parameter checks have been ignored because the valid value for parameter 'trise' could not be found in 'C1'.
    WARNING (CMI-2943): Parameter checks have been ignored because the valid value for parameter 'trise' could not be found in 'I0.R2.CM'.
    WARNING (CMI-2943): Parameter checks have been ignored because the valid value for parameter 'trise' could not be found in 'I0.R2.CS1'.
    WARNING (CMI-2943): Parameter checks have been ignored because the valid value for parameter 'trise' could not be found in 'I0.R2.CS0'.
    WARNING (CMI-2943): Parameter checks have been ignored because the valid value for parameter 'trise' could not be found in 'I0.C8<3>.C1'.
        Further occurrences of this warning will be suppressed.

Convergence achieved in 18 iterations.
DC simulation time: CPU = 5.711 ms, elapsed = 7.22122 ms.
Total time required for dc analysis `dcOp': CPU = 6.227 ms, elapsed = 7.73311 ms, util. = 80.5%.
Time accumulated: CPU = 28.4825 s, elapsed = 29.8857 s.
Peak resident memory used = 215 Mbytes.


Notice from spectre during Monte Carlo analysis `mc1'.
    34 warnings suppressed.

dcOpInfo: writing operating point information to rawfile.

Opening the PSF file ../psf/mc1_separate/049/dcOpInfo.info ...

************************************************
Transient Analysis `tran': time = (0 s -> 40 ms)
************************************************

Opening the PSF file ../psf/mc1_separate/049/tran.tran.tran ...

Notice from spectre during IC analysis, during transient analysis `tran', during Monte Carlo analysis `mc1'.
    Bad pivoting is found during DC analysis. Option dc_pivot_check=yes is recommended for possible improvement of convergence.
Warning from spectre during check, during IC analysis, during transient analysis `tran', during Monte Carlo analysis `mc1'.
    WARNING (CMI-2943): Parameter checks have been ignored because the valid value for parameter 'trise' could not be found in 'C1'.
    WARNING (CMI-2943): Parameter checks have been ignored because the valid value for parameter 'trise' could not be found in 'I0.R2.CM'.
    WARNING (CMI-2943): Parameter checks have been ignored because the valid value for parameter 'trise' could not be found in 'I0.R2.CS1'.
    WARNING (CMI-2943): Parameter checks have been ignored because the valid value for parameter 'trise' could not be found in 'I0.R2.CS0'.
    WARNING (CMI-2943): Parameter checks have been ignored because the valid value for parameter 'trise' could not be found in 'I0.C8<3>.C1'.
        Further occurrences of this warning will be suppressed.

Convergence achieved in 18 iterations.
DC simulation time: CPU = 2.747 ms, elapsed = 2.74706 ms.
Important parameter values:
    start = 0 s
    outputstart = 0 s
    stop = 40 ms
    step = 40 us
    maxstep = 400 us
    ic = all
    useprevic = no
    skipdc = no
    reltol = 10e-06
    abstol(V) = 1 uV
    abstol(I) = 1 pA
    temp = 85 C
    tnom = 27 C
    tempeffects = all
    errpreset = conservative
    method = gear2only
    lteratio = 10
    relref = alllocal
    cmin = 0 F
    gmin = 1 pS
    rabsshort = 1 mOhm


Notice from spectre during transient analysis `tran', during Monte Carlo analysis `mc1'.
    Multithreading is disabled due to the size of the design being too small.


Output and IC/nodeset summary:
                 save   8       (current)
                 save   87      (voltage)

    tran: time = 1.017 ms    (2.54 %), step = 48.84 us     (122 m%)
    tran: time = 3.031 ms    (7.58 %), step = 47.71 us     (119 m%)
    tran: time = 5.044 ms    (12.6 %), step = 46.84 us     (117 m%)
    tran: time = 7.011 ms    (17.5 %), step = 49.38 us     (123 m%)
    tran: time = 9.025 ms    (22.6 %), step = 48.17 us     (120 m%)
    tran: time = 11.04 ms    (27.6 %), step = 47.19 us     (118 m%)
    tran: time = 13.01 ms    (32.5 %), step = 49.98 us     (125 m%)
    tran: time = 15.02 ms    (37.5 %), step = 48.66 us     (122 m%)
    tran: time = 17.03 ms    (42.6 %), step = 47.57 us     (119 m%)
    tran: time = 19.05 ms    (47.6 %), step = 46.73 us     (117 m%)
    tran: time = 21.01 ms    (52.5 %), step = 49.19 us     (123 m%)
    tran: time = 23.03 ms    (57.6 %), step = 48.01 us     (120 m%)
    tran: time = 25.04 ms    (62.6 %), step = 47.07 us     (118 m%)
    tran: time = 27.01 ms    (67.5 %), step = 49.77 us     (124 m%)
    tran: time = 29.02 ms    (72.6 %), step = 48.5 us      (121 m%)
    tran: time = 31.03 ms    (77.6 %), step = 47.44 us     (119 m%)
    tran: time = 33 ms       (82.5 %), step = 50 us        (125 m%)
    tran: time = 35.01 ms    (87.5 %), step = 49.01 us     (123 m%)
    tran: time = 37.03 ms    (92.6 %), step = 47.86 us     (120 m%)
    tran: time = 39.04 ms    (97.6 %), step = 46.95 us     (117 m%)
Number of accepted tran steps =             851

Maximum value achieved for any signal of each quantity: 
V: V(S<0>) = 3.3 V
I: I(V0:p) = 6.464 uA
Maximum value of each quantity, excluding Verilog-A modules or dangling current sources:
V: V(vout_filt) = 1.614 V
I: I(V0:p) = 6.464 uA

~~~~~~~~~~~~~~~~~~~~~~~~~~~~~~~~~
Post-Transient Simulation Summary
~~~~~~~~~~~~~~~~~~~~~~~~~~~~~~~~~
   -   To further speed up simulation, consider
          add ++aps on command line
   -   Non-default settings that could significantly slow down simulation
          errpreset = conservative, default moderate
          reltol = 10e-06, default 100e-06 (conservative)
~~~~~~~~~~~~~~~~~~~~~~~~~~~~~~~~~


During simulation, the CPU load for active processors is :
         0 (68.8 %)      1 (25.4 %)      2 (12.2 %)      3 (19.2 %)
         4 (10.1 %)      5 (49.7 %)      6 (44.9 %)      7 (11.1 %)
         8 (16.1 %)      9 (21.5 %)     10 (5.0 %)      11 (17.2 %)
        12 (14.8 %)     13 (17.4 %)     14 (19.7 %)     15 (19.1 %)
        16 (34.0 %)     17 (77.1 %)     18 (32.0 %)     19 (39.2 %)
        20 (31.3 %)     21 (9.4 %)      22 (15.6 %)     23 (15.3 %)
        24 (21.7 %)     25 (19.3 %)     26 (6.0 %)      27 (6.2 %)
        28 (26.5 %)     29 (16.9 %)     30 (6.9 %)      31 (100.0 %)
        32 (5.9 %)      33 (21.1 %)     34 (57.3 %)     35 (11.5 %)
        36 (15.5 %)     37 (40.5 %)     38 (18.0 %)     39 (35.4 %)
        40 (42.2 %)     41 (26.9 %)     42 (20.2 %)     43 (14.8 %)
        44 (20.8 %)     45 (92.0 %)     46 (23.7 %)     47 (46.4 %)
        Total: 1321.8%
Initial condition solution time: CPU = 2.783 ms, elapsed = 2.78401 ms.
Intrinsic tran analysis time:    CPU = 525.437 ms, elapsed = 526.864 ms.
Total time required for tran analysis `tran': CPU = 530.159 ms, elapsed = 532.172 ms, util. = 99.6%.
Time accumulated: CPU = 29.0198 s, elapsed = 30.4274 s.
Peak resident memory used = 215 Mbytes.


Notice from spectre during transient analysis `tran', during Monte Carlo analysis `mc1'.
    34 warnings suppressed.

finalTimeOP: writing operating point information to rawfile.

Opening the PSF file ../psf/mc1_separate/049/finalTimeOP.info ...
modelParameter: writing model parameter values to rawfile.

Opening the PSF file ../psf/mc1_separate/049/modelParameter.info ...
element: writing instance parameter values to rawfile.

Opening the PSF file ../psf/mc1_separate/049/element.info ...
outputParameter: writing output parameter values to rawfile.

Opening the PSF file ../psf/mc1_separate/049/outputParameter.info ...
designParamVals: writing netlist parameters to rawfile.

Opening the PSFASCII file ../psf/mc1_separate/049/designParamVals.info ...
primitives: writing primitives to rawfile.

Opening the PSFASCII file ../psf/mc1_separate/049/primitives.info.primitives ...
subckts: writing subcircuits to rawfile.

Opening the PSFASCII file ../psf/mc1_separate/049/subckts.info.subckts ...
    mc1: iteration = 49            (98 %), step = 1            (2.04 %)
50 100.00% 

*****************************************************************************************
* 
* INFO: AMS_processOption = C35B4C3
* 
* INFO: Valid Modules  PIP VG5 HIRES
* 
*****************************************************************************************


******************
DC Analysis `dcOp'
******************

Opening the PSF file ../psf/mc1_separate/050/dcOp.dc ...
Important parameter values:
    reltol = 100e-06
    abstol(V) = 1 uV
    abstol(I) = 1 pA
    temp = 85 C
    tnom = 27 C
    tempeffects = all
    gmindc = 1 pS
    rabsshort = 1 mOhm

Notice from spectre during DC analysis `dcOp', during Monte Carlo analysis `mc1'.
    Bad pivoting is found during DC analysis. Option dc_pivot_check=yes is recommended for possible improvement of convergence.


Maximum value achieved for any signal of each quantity: 
V: V(S<0>) = 3.3 V
I: I(V0:p) = 6.413 uA
Maximum value of each quantity, excluding Verilog-A modules or dangling current sources:
V: V(vout_filt) = 1.601 V
I: I(V0:p) = 6.413 uA

Warning from spectre during check, during DC analysis `dcOp', during Monte Carlo analysis `mc1'.
    WARNING (CMI-2943): Parameter checks have been ignored because the valid value for parameter 'trise' could not be found in 'C1'.
    WARNING (CMI-2943): Parameter checks have been ignored because the valid value for parameter 'trise' could not be found in 'I0.R2.CM'.
    WARNING (CMI-2943): Parameter checks have been ignored because the valid value for parameter 'trise' could not be found in 'I0.R2.CS1'.
    WARNING (CMI-2943): Parameter checks have been ignored because the valid value for parameter 'trise' could not be found in 'I0.R2.CS0'.
    WARNING (CMI-2943): Parameter checks have been ignored because the valid value for parameter 'trise' could not be found in 'I0.C8<3>.C1'.
        Further occurrences of this warning will be suppressed.

Convergence achieved in 19 iterations.
DC simulation time: CPU = 5.321 ms, elapsed = 6.52409 ms.
Total time required for dc analysis `dcOp': CPU = 5.736 ms, elapsed = 6.93917 ms, util. = 82.7%.
Time accumulated: CPU = 29.0643 s, elapsed = 30.4836 s.
Peak resident memory used = 215 Mbytes.


Notice from spectre during Monte Carlo analysis `mc1'.
    34 warnings suppressed.

dcOpInfo: writing operating point information to rawfile.

Opening the PSF file ../psf/mc1_separate/050/dcOpInfo.info ...

************************************************
Transient Analysis `tran': time = (0 s -> 40 ms)
************************************************

Opening the PSF file ../psf/mc1_separate/050/tran.tran.tran ...

Notice from spectre during IC analysis, during transient analysis `tran', during Monte Carlo analysis `mc1'.
    Bad pivoting is found during DC analysis. Option dc_pivot_check=yes is recommended for possible improvement of convergence.
Warning from spectre during check, during IC analysis, during transient analysis `tran', during Monte Carlo analysis `mc1'.
    WARNING (CMI-2943): Parameter checks have been ignored because the valid value for parameter 'trise' could not be found in 'C1'.
    WARNING (CMI-2943): Parameter checks have been ignored because the valid value for parameter 'trise' could not be found in 'I0.R2.CM'.
    WARNING (CMI-2943): Parameter checks have been ignored because the valid value for parameter 'trise' could not be found in 'I0.R2.CS1'.
    WARNING (CMI-2943): Parameter checks have been ignored because the valid value for parameter 'trise' could not be found in 'I0.R2.CS0'.
    WARNING (CMI-2943): Parameter checks have been ignored because the valid value for parameter 'trise' could not be found in 'I0.C8<3>.C1'.
        Further occurrences of this warning will be suppressed.

Convergence achieved in 19 iterations.
DC simulation time: CPU = 2.849 ms, elapsed = 2.84982 ms.
Important parameter values:
    start = 0 s
    outputstart = 0 s
    stop = 40 ms
    step = 40 us
    maxstep = 400 us
    ic = all
    useprevic = no
    skipdc = no
    reltol = 10e-06
    abstol(V) = 1 uV
    abstol(I) = 1 pA
    temp = 85 C
    tnom = 27 C
    tempeffects = all
    errpreset = conservative
    method = gear2only
    lteratio = 10
    relref = alllocal
    cmin = 0 F
    gmin = 1 pS
    rabsshort = 1 mOhm


Notice from spectre during transient analysis `tran', during Monte Carlo analysis `mc1'.
    Multithreading is disabled due to the size of the design being too small.


Output and IC/nodeset summary:
                 save   8       (current)
                 save   87      (voltage)

    tran: time = 1.017 ms    (2.54 %), step = 48.84 us     (122 m%)
    tran: time = 3.031 ms    (7.58 %), step = 47.7 us      (119 m%)
    tran: time = 5.045 ms    (12.6 %), step = 46.82 us     (117 m%)
    tran: time = 7.012 ms    (17.5 %), step = 49.33 us     (123 m%)
    tran: time = 9.025 ms    (22.6 %), step = 48.12 us     (120 m%)
    tran: time = 11.04 ms    (27.6 %), step = 47.14 us     (118 m%)
    tran: time = 13.01 ms    (32.5 %), step = 49.87 us     (125 m%)
    tran: time = 15.02 ms    (37.6 %), step = 48.56 us     (121 m%)
    tran: time = 17.03 ms    (42.6 %), step = 47.49 us     (119 m%)
    tran: time = 19 ms       (47.5 %), step = 50 us        (125 m%)
    tran: time = 21.01 ms    (52.5 %), step = 49.04 us     (123 m%)
    tran: time = 23.03 ms    (57.6 %), step = 47.87 us     (120 m%)
    tran: time = 25.04 ms    (62.6 %), step = 46.95 us     (117 m%)
    tran: time = 27.01 ms    (67.5 %), step = 49.55 us     (124 m%)
    tran: time = 29.02 ms    (72.6 %), step = 48.3 us      (121 m%)
    tran: time = 31.04 ms    (77.6 %), step = 47.28 us     (118 m%)
    tran: time = 33 ms       (82.5 %), step = 50 us        (125 m%)
    tran: time = 35.02 ms    (87.5 %), step = 48.75 us     (122 m%)
    tran: time = 37.03 ms    (92.6 %), step = 47.63 us     (119 m%)
    tran: time = 39.05 ms    (97.6 %), step = 46.77 us     (117 m%)
Number of accepted tran steps =             851

Maximum value achieved for any signal of each quantity: 
V: V(S<0>) = 3.3 V
I: I(V0:p) = 6.413 uA
Maximum value of each quantity, excluding Verilog-A modules or dangling current sources:
V: V(vout_filt) = 1.614 V
I: I(V0:p) = 6.413 uA

~~~~~~~~~~~~~~~~~~~~~~~~~~~~~~~~~
Post-Transient Simulation Summary
~~~~~~~~~~~~~~~~~~~~~~~~~~~~~~~~~
   -   To further speed up simulation, consider
          add ++aps on command line
   -   Non-default settings that could significantly slow down simulation
          errpreset = conservative, default moderate
          reltol = 10e-06, default 100e-06 (conservative)
~~~~~~~~~~~~~~~~~~~~~~~~~~~~~~~~~


During simulation, the CPU load for active processors is :
         0 (69.4 %)      1 (26.9 %)      2 (12.0 %)      3 (18.9 %)
         4 (10.0 %)      5 (48.8 %)      6 (44.0 %)      7 (11.4 %)
         8 (15.8 %)      9 (21.1 %)     10 (4.9 %)      11 (17.2 %)
        12 (14.7 %)     13 (18.9 %)     14 (19.4 %)     15 (18.8 %)
        16 (33.3 %)     17 (75.7 %)     18 (31.4 %)     19 (40.4 %)
        20 (30.7 %)     21 (9.4 %)      22 (15.4 %)     23 (15.2 %)
        24 (21.4 %)     25 (19.0 %)     26 (7.7 %)      27 (6.2 %)
        28 (26.1 %)     29 (16.7 %)     30 (6.8 %)      31 (100.0 %)
        32 (5.9 %)      33 (20.7 %)     34 (56.3 %)     35 (13.2 %)
        36 (15.2 %)     37 (39.8 %)     38 (18.2 %)     39 (35.0 %)
        40 (43.2 %)     41 (26.6 %)     42 (21.7 %)     43 (14.5 %)
        44 (20.4 %)     45 (92.2 %)     46 (24.6 %)     47 (45.6 %)
        Total: 1320.5%
Initial condition solution time: CPU = 2.882 ms, elapsed = 2.8851 ms.
Intrinsic tran analysis time:    CPU = 524.748 ms, elapsed = 526.412 ms.
Total time required for tran analysis `tran': CPU = 529.377 ms, elapsed = 531.638 ms, util. = 99.6%.
Time accumulated: CPU = 29.6006 s, elapsed = 31.0247 s.
Peak resident memory used = 215 Mbytes.


Notice from spectre during transient analysis `tran', during Monte Carlo analysis `mc1'.
    34 warnings suppressed.

finalTimeOP: writing operating point information to rawfile.

Opening the PSF file ../psf/mc1_separate/050/finalTimeOP.info ...
modelParameter: writing model parameter values to rawfile.

Opening the PSF file ../psf/mc1_separate/050/modelParameter.info ...
element: writing instance parameter values to rawfile.

Opening the PSF file ../psf/mc1_separate/050/element.info ...
outputParameter: writing output parameter values to rawfile.

Opening the PSF file ../psf/mc1_separate/050/outputParameter.info ...
designParamVals: writing netlist parameters to rawfile.

Opening the PSFASCII file ../psf/mc1_separate/050/designParamVals.info ...
primitives: writing primitives to rawfile.

Opening the PSFASCII file ../psf/mc1_separate/050/primitives.info.primitives ...
subckts: writing subcircuits to rawfile.

Opening the PSFASCII file ../psf/mc1_separate/050/subckts.info.subckts ...
    mc1: iteration = 50           (100 %), step = 1            (2.04 %)
Total time required for montecarlo analysis `mc1': CPU = 29.1761 s, elapsed = 30.0632 s, util. = 97%.
Time accumulated: CPU = 29.6284 s, elapsed = 31.0657 s.
Peak resident memory used = 215 Mbytes.

Licensing Information:
Lic Summary:
[09:10:59.219193] Cdslmd servers:3000@lic08.ug.kth.se:29000@lic06.ug.kth.se
[09:10:59.743522] Feature usage summary:
[09:10:59.743523] Virtuoso_Multi_mode_Simulation


Aggregate audit (9:10:59 AM, Thur Apr 16, 2026):
Time used: CPU = 29.6 s, elapsed = 31.1 s, util. = 95.4%.
Time spent in licensing: elapsed = 51.5 ms.
Peak memory used = 215 Mbytes.
Simulation started at: 9:10:28 AM, Thur Apr 16, 2026, ended at: 9:10:59 AM, Thur Apr 16, 2026, with elapsed time (wall clock): 31.1 s.
spectre completes with 0 errors, 527 warnings, and 262 notices.
