
Spectre (R) Circuit Simulator
Version 24.1.0.288.isr5 64bit -- 3 Apr 2025
Copyright (C) 1989-2025 Cadence Design Systems, Inc. All rights reserved worldwide. Cadence and Spectre are registered trademarks of Cadence Design Systems, Inc. All others are the property of their respective holders.

Includes RSA BSAFE(R) Cryptographic or Security Protocol Software from RSA Security, Inc.

User: davidevi   Host: il2244vt26_davidevi   HostID: 11AC2C00   PID: 1024443
Memory  available: 3.0319 TB  physical: 3.2467 TB
Linux   : Rocky Linux release 8.10 (Green Obsidian)
CPU Type: Intel(R) Xeon(R) CPU E7-8857 v2 @ 3.00GHz
        Socket: Processors [Frequency]
        0:       0 [2999.9],  1 [2999.9],  2 [2999.9],  3 [1200.0],  4 [1200.0]
                 5 [1200.0],  6 [1200.0],  7 [1200.0],  8 [1200.0],  9 [2800.0]
                10 [1200.0], 11 [1200.0]
        1:      12 [3000.0], 13 [3600.0], 14 [2400.0], 15 [3600.0], 16 [1200.0]
                17 [2999.9], 18 [1200.0], 19 [1200.0], 20 [1200.0], 21 [3600.0]
                22 [2999.9], 23 [2800.0]
        2:      24 [1200.0], 25 [1500.0], 26 [2700.0], 27 [2999.9], 28 [2999.9]
                29 [2600.0], 30 [1200.0], 31 [3600.0], 32 [3100.0], 33 [1200.0]
                34 [2500.0], 35 [2200.0]
        3:      36 [2600.0], 37 [1200.0], 38 [2400.0], 39 [1200.0], 40 [2500.0]
                41 [2999.9], 42 [2999.9], 43 [1200.0], 44 [2400.0], 45 [2999.9]
                46 [1200.0], 47 [1200.0]
        
System load averages (1min, 5min, 15min) : 23.7 %, 23.4 %, 24.2 %
HPC is enabled


Simulating `input.scs' on il2244vt26_davidevi at 4:50:11 PM, Wed Apr 15, 2026 (process id: 1024443).
Current working directory: /home/davidevi/Desktop/myproject/Sim/VGA/VGA_1_wakeup_tb/adexl/results/data/MonteCarlo.0/11/wakeup/groupRunDataDir/netlist
Command line:
    /opt/tools/cadence/installs/SPECTRE241/tools/bin/spectre -64  \
        input.scs +escchars +log ../psf/spectre.out -format psfbin  \
        +rtsf -raw ../psf +aps +mt +lqtimeout 900 -maxw 5 -maxn 5  \
        +param /opt/pdk/ams/410/spectre/ams_range.lmts -env ade  \
        -ahdllibdir  \
        /home/davidevi/Desktop/myproject/Sim/VGA/VGA_1_wakeup_tb/adexl/results/data/MonteCarlo.0/sharedData/Job457/ahdl/input.ahdlSimDB  \
        +logstatus  \
        +adespetkn=0001089D13A302B663E41FB550AF0DF415A679A322D5069144BF588C12F604E07EF416DC01A319B562BB63D361C9278045A377D442E91AA055EC79CA6C8A4F9260D579D15D9175FF34986BDD0AF002BA50FD7FD707E002A700AC1C841AFC44E10EA979D12FF874D3349879D118F874D33498100ED93AB5115D470000366C

Simulation Id: SS4boqatnsO3TVTM
Licensing Information:
[16:50:11.121714] Configured Lic search path (24.01-s002): 3000@lic08.ug.kth.se:29000@lic06.ug.kth.se

Licensing Information:
[16:50:11.428754] Periodic Lic check successful

Loading /opt/tools/cadence/installs/SPECTRE241/tools.lnx86/cmi/lib/64bit/5.0/libinfineon_sh.so ...
Loading /opt/tools/cadence/installs/SPECTRE241/tools.lnx86/cmi/lib/64bit/5.0/libphilips_I_sh.so ...
Loading /opt/tools/cadence/installs/SPECTRE241/tools.lnx86/cmi/lib/64bit/5.0/libphilips_sh.so ...
Loading /opt/tools/cadence/installs/SPECTRE241/tools.lnx86/cmi/lib/64bit/5.0/libsparam_sh.so ...
Loading /opt/tools/cadence/installs/SPECTRE241/tools.lnx86/cmi/lib/64bit/5.0/libstmodels_sh.so ...

Warning from spectre.
    WARNING (SPECTRE-691): This CPU processor does not support x86 advanced vector extensions instructions. This may affect math operations and slow down the simulation.

Reading file:  /home/davidevi/Desktop/myproject/Sim/VGA/VGA_1_wakeup_tb/adexl/results/data/MonteCarlo.0/11/wakeup/groupRunDataDir/netlist/input.scs
Reading file:  /opt/pdk/ams/410/spectre/ams_range.lmts

Warning from spectre during read of parameter soft limits file `/opt/pdk/ams/410/spectre/ams_range.lmts', during circuit read-in.
    WARNING (SPECTRE-8360): line 1511: `ac' is an undefined primitive device.
    WARNING (SPECTRE-8360): line 1512: `ac' is an undefined primitive device.
    WARNING (SPECTRE-8360): line 1513: `ac' is an undefined primitive device.
    WARNING (SPECTRE-8360): line 1514: `ac' is an undefined primitive device.
    WARNING (SPECTRE-8360): line 1515: `ac' is an undefined primitive device.
        Further occurrences of this warning will be suppressed.

Reading file:  /opt/tools/cadence/installs/SPECTRE241/tools.lnx86/spectre/etc/configs/spectre.cfg
Reading file:  /opt/pdk/ams/410/spectre/c35/soac/soac.scs
Reading file:  /opt/pdk/ams/410/spectre/c35/soac/processOption.scs
Reading file:  /opt/pdk/ams/410/spectre/c35/soac/process.scs
Reading file:  /opt/pdk/ams/410/spectre/c35/soac/soac.va

Warning from spectre during AHDL read-in.
    WARNING (VACOMP-2435): The environment variable CDS_AHDLCMI_ENABLE is no longer supported. Therefore, the simulator will use the default compiled C code flow.

Reading link:  /opt/tools/cadence/installs/SPECTRE241/tools.lnx86/spectre/etc/ahdl/constants.h
Reading file:  /opt/tools/cadence/installs/SPECTRE241/tools.lnx86/spectre/etc/ahdl/constants.vams
Reading link:  /opt/tools/cadence/installs/SPECTRE241/tools.lnx86/spectre/etc/ahdl/discipline.h
Reading file:  /opt/tools/cadence/installs/SPECTRE241/tools.lnx86/spectre/etc/ahdl/disciplines.vams
Reading file:  /opt/pdk/ams/410/spectre/c35/processOption/C35B4C3.scs
Reading file:  /opt/pdk/ams/410/spectre/c35/soac/cmos53.scs
Reading file:  /opt/pdk/ams/410/spectre/c35/soac/res.scs
Reading file:  /opt/pdk/ams/410/spectre/c35/soac/cap.scs
Reading file:  /opt/pdk/ams/410/spectre/c35/soac/bip.scs
Reading file:  /opt/pdk/ams/410/spectre/c35/soac/ind.scs
Reading file:  /opt/pdk/ams/410/spectre/c35/soac/esddiode.scs
Time for NDB Parsing: CPU = 175.08 ms, elapsed = 327.511 ms.
Time accumulated: CPU = 380.932 ms, elapsed = 327.513 ms.
Peak resident memory used = 175 Mbytes.

Existing shared object for module modn_ahdl is up to date.
Installed compiled interface for modn_ahdl.
Existing shared object for module modp_ahdl is up to date.
Installed compiled interface for modp_ahdl.
Existing shared object for module cpoly_ahdl is up to date.
Installed compiled interface for cpoly_ahdl.
Existing shared object for module rpolyh_ahdl is up to date.
Installed compiled interface for rpolyh_ahdl.
Existing shared object for module bsource_19b458 is up to date.
Installed compiled interface for bsource_19b458.
Time for Elaboration: CPU = 59.569 ms, elapsed = 63.066 ms.
Time accumulated: CPU = 440.63 ms, elapsed = 390.708 ms.
Peak resident memory used = 188 Mbytes.


Notice from spectre during hierarchy flattening.
    The value 'psf' specified for the 'checklimitdest' option will no longer be supported in future releases. Use 'spectre -h' to see other recommended values for the 'checklimitdest' option.


*****************************************************************************************
* 
* INFO: AMS_processOption = C35B4C3
* 
* INFO: Valid Modules  PIP VG5 HIRES
* 
*****************************************************************************************


Notice from spectre during hierarchy flattening.
    V8: `period' has the unusually large value of 100 s.


Time for EDB Visiting: CPU = 8.93 ms, elapsed = 8.94403 ms.
Time accumulated: CPU = 449.688 ms, elapsed = 399.779 ms.
Peak resident memory used = 191 Mbytes.

Loading /opt/tools/cadence/installs/SPECTRE241/tools.lnx86/mdl/lib/64bit/libSpectreEH_sh.so ...

Warning from spectre during initial setup.
    WARNING (SPECTRE-16460): SOAC_cvarm_vspsub:Specified subcircuit master `cvarm' was not found.
    WARNING (SPECTRE-16462): SOAC_cvarm_vspsub:Error in specification of subcircuit master. Assert is ignored.
    WARNING (SPECTRE-16460): SOAC_cvarm_vbs:Specified subcircuit master `cvarm' was not found.
    WARNING (SPECTRE-16462): SOAC_cvarm_vbs:Error in specification of subcircuit master. Assert is ignored.
    WARNING (SPECTRE-16460): SOAC_cvarm_vgb:Specified subcircuit master `cvarm' was not found.
    WARNING (SPECTRE-16462): SOAC_cvarm_vgb:Error in specification of subcircuit master. Assert is ignored.
    WARNING (SPECTRE-16460): SOAC_cvart_vspsub:Specified subcircuit master `cvart' was not found.
    WARNING (SPECTRE-16462): SOAC_cvart_vspsub:Error in specification of subcircuit master. Assert is ignored.
    WARNING (SPECTRE-16460): SOAC_cvart_vbs:Specified subcircuit master `cvart' was not found.
        Further occurrences of this warning will be suppressed.
    WARNING (SPECTRE-16462): SOAC_cvart_vbs:Error in specification of subcircuit master. Assert is ignored.
        Further occurrences of this warning will be suppressed.
Notice from spectre during topology check.
    Only one connection to the following 54 nodes:
        I0.MN6.psub!
        I0.MN5.psub!
        I0.MN4.psub!
        I0.MN3.psub!
        I0.MN2.psub!
        Further occurrences of this notice will be suppressed.
Notice from spectre during initial setup.
    Multithreading is disabled due to the size of the design being too small.


Netlist title:
        // Point Netlist Generated on: Apr 15 16:50:10 2026


Global user options:
         psfversion = 1.4.0
            vabstol = 1e-06
            iabstol = 1e-12
               temp = 85
           homotopy = 5
              limit = delta
         compatible = spice2
               gmin = 1e-12
             rforce = 1
           maxnotes = 5
           maxwarns = 5
             digits = 5
               cols = 80
             pivrel = 0.001
           sensfile = ../psf/sens.output
     checklimitdest = psf
     enable_pre_ver = yes
      ignorezerovar = yes
               save = allpub
             reltol = 0.0001
               tnom = 27
             scalem = 1
              scale = 1

Scoped user options:

Circuit inventory:
              nodes 88
            bsim3v3 35    
     bsource_19b458 2     
          capacitor 38    
         cpoly_ahdl 17    
            isource 1     
          modn_ahdl 19    
          modp_ahdl 16    
           resistor 1     
        rpolyh_ahdl 2     
            vsource 8     

Analysis and control statement inventory:
               info 7     
         montecarlo 1     
               tran 1     

Output statements:
             .probe 0     
           .measure 0     
               save 0     

Design checks inventory:
          paramtest 55    
             assert 175   


Notice from spectre during initial setup.
    APS enabled.
    1 notice suppressed.
    72 warnings suppressed.

Time for parsing: CPU = 19.239 ms, elapsed = 626.515 ms.
Time accumulated: CPU = 469.032 ms, elapsed = 1.0264 s.
Peak resident memory used = 198 Mbytes.

~~~~~~~~~~~~~~~~~~~~~~
Pre-Simulation Summary
~~~~~~~~~~~~~~~~~~~~~~
   -   (APS) Multi-threading. The recommended number of threads is 1, consider adding +mt=1 on command line.
~~~~~~~~~~~~~~~~~~~~~~

**************************************************
Monte Carlo Analysis `mc1': iteration = (1 -> 100)
**************************************************
Important parameter values:
    seed = 12345
    sampling = lds
    variations = all
    firstrun = 1
    numruns = 100
    nullmfactorcorrelation = no
    donominal = yes
    method = standard

**** Performing nominal run for `mc1'

Notice from spectre during transient analysis `tran', during Monte Carlo analysis `mc1'.
    No checklimit analysis defined for asserts. A default checklimit analysis 'SpectreChecklimitAnal' has been created with all asserts enabled.


***********************************************
Transient Analysis `tran': time = (0 s -> 50 s)
***********************************************

Warning from spectre during check, during IC analysis, during transient analysis `tran', during Monte Carlo analysis `mc1'.
    WARNING (CMI-2943): Parameter checks have been ignored because the valid value for parameter 'trise' could not be found in 'C1'.
    WARNING (CMI-2943): Parameter checks have been ignored because the valid value for parameter 'trise' could not be found in 'I0.R2.CM'.
    WARNING (CMI-2943): Parameter checks have been ignored because the valid value for parameter 'trise' could not be found in 'I0.R2.CS1'.
    WARNING (CMI-2943): Parameter checks have been ignored because the valid value for parameter 'trise' could not be found in 'I0.R2.CS0'.
    WARNING (CMI-2943): Parameter checks have been ignored because the valid value for parameter 'trise' could not be found in 'I0.C3.C1'.
        Further occurrences of this warning will be suppressed.

Convergence achieved in 12 iterations.
DC simulation time: CPU = 3.129 ms, elapsed = 3.12996 ms.

Opening the PSF file ../psf/nom/tran.tran.tran ...
Important parameter values:
    start = 0 s
    outputstart = 0 s
    stop = 50 s
    step = 50 ms
    maxstep = 500 ms
    ic = all
    useprevic = no
    skipdc = no
    reltol = 10e-06
    abstol(V) = 1 uV
    abstol(I) = 1 pA
    temp = 85 C
    tnom = 27 C
    tempeffects = all
    errpreset = conservative
    method = gear2only
    lteratio = 10
    relref = alllocal
    cmin = 0 F
    gmin = 1 pS
    rabsshort = 1 mOhm


Notice from spectre during transient analysis `tran', during Monte Carlo analysis `mc1'.
    Multithreading is disabled due to the size of the design being too small.


Output and IC/nodeset summary:
                 save   8       (current)
                 save   87      (voltage)

    tran: time = 1.296 s     (2.59 %), step = 107.7 ms     (215 m%)
    tran: time = 3.841 s     (7.68 %), step = 336.7 ms     (673 m%)
    tran: time = 6.52 s        (13 %), step = 500 ms          (1 %)
    tran: time = 9.02 s        (18 %), step = 500 ms          (1 %)
    tran: time = 11.52 s       (23 %), step = 500 ms          (1 %)
    tran: time = 14.02 s       (28 %), step = 500 ms          (1 %)
    tran: time = 16.52 s       (33 %), step = 500 ms          (1 %)
    tran: time = 19.02 s       (38 %), step = 500 ms          (1 %)
    tran: time = 21.52 s       (43 %), step = 500 ms          (1 %)
    tran: time = 24.02 s       (48 %), step = 500 ms          (1 %)
    tran: time = 26.52 s       (53 %), step = 500 ms          (1 %)
    tran: time = 29.02 s       (58 %), step = 500 ms          (1 %)
    tran: time = 31.52 s       (63 %), step = 500 ms          (1 %)
    tran: time = 34.02 s       (68 %), step = 500 ms          (1 %)
    tran: time = 36.52 s       (73 %), step = 500 ms          (1 %)
    tran: time = 39.02 s       (78 %), step = 500 ms          (1 %)
    tran: time = 41.52 s       (83 %), step = 500 ms          (1 %)
    tran: time = 44.02 s       (88 %), step = 500 ms          (1 %)
    tran: time = 46.52 s       (93 %), step = 500 ms          (1 %)
    tran: time = 49.02 s       (98 %), step = 500 ms          (1 %)
Number of accepted tran steps =             728

Maximum value achieved for any signal of each quantity: 
V: V(S<0>) = 3.3 V
I: I(V8:p) = 6.441 uA

~~~~~~~~~~~~~~~~~~~~~~~~~~~~~~~~~
Post-Transient Simulation Summary
~~~~~~~~~~~~~~~~~~~~~~~~~~~~~~~~~
   -   To further speed up simulation, consider
          add ++aps on command line
   -   Non-default settings that could significantly slow down simulation
          errpreset = conservative, default moderate
          reltol = 10e-06, default 100e-06 (conservative)
~~~~~~~~~~~~~~~~~~~~~~~~~~~~~~~~~


During simulation, the CPU load for active processors is :
         0 (96.5 %)      1 (100.0 %)     2 (100.0 %)     3 (2.9 %)
         4 (2.9 %)       5 (3.6 %)       6 (2.2 %)       7 (5.8 %)
         8 (20.0 %)      9 (1.4 %)      10 (1.4 %)      11 (20.9 %)
        12 (13.6 %)     13 (9.3 %)      14 (47.5 %)     15 (7.9 %)
        16 (4.3 %)      17 (26.6 %)     18 (2.9 %)      19 (7.8 %)
        20 (71.5 %)     21 (44.0 %)     22 (100.0 %)    23 (5.8 %)
        24 (6.4 %)      25 (5.7 %)      26 (12.1 %)     27 (5.0 %)
        28 (100.0 %)    29 (3.6 %)      30 (17.6 %)     31 (6.5 %)
        32 (5.8 %)      33 (4.3 %)      34 (7.1 %)      35 (3.6 %)
        36 (13.5 %)     37 (7.1 %)      38 (2.2 %)      39 (2.9 %)
        40 (2.1 %)      41 (97.9 %)     42 (17.3 %)     43 (6.5 %)
        44 (4.3 %)      45 (79.6 %)     46 (2.9 %)      47 (1.4 %)
        Total: 1113.9%
Initial condition solution time: CPU = 3.178 ms, elapsed = 3.17979 ms.
Intrinsic tran analysis time:    CPU = 443.995 ms, elapsed = 445.532 ms.
Total time required for tran analysis `tran': CPU = 530.667 ms, elapsed = 535.9 ms, util. = 99%.
Time accumulated: CPU = 1.02768 s, elapsed = 1.59167 s.
Peak resident memory used = 209 Mbytes.


Notice from spectre during transient analysis `tran', during Monte Carlo analysis `mc1'.
    34 warnings suppressed.

finalTimeOP: writing operating point information to rawfile.

Opening the PSF file ../psf/nom/finalTimeOP.info ...
modelParameter: writing model parameter values to rawfile.

Opening the PSF file ../psf/nom/modelParameter.info ...
element: writing instance parameter values to rawfile.

Opening the PSF file ../psf/nom/element.info ...
outputParameter: writing output parameter values to rawfile.

Opening the PSF file ../psf/nom/outputParameter.info ...
designParamVals: writing netlist parameters to rawfile.

Opening the PSFASCII file ../psf/nom/designParamVals.info ...
primitives: writing primitives to rawfile.

Opening the PSFASCII file ../psf/nom/primitives.info.primitives ...
subckts: writing subcircuits to rawfile.

Opening the PSFASCII file ../psf/nom/subckts.info.subckts ...
Opening iteration number and data-directory mapping file:  /home/davidevi/Desktop/myproject/Sim/VGA/VGA_1_wakeup_tb/adexl/results/data/MonteCarlo.0/11/wakeup/groupRunDataDir/netlist/../psf/mc1.mapping

Statistical parameters:
    Defined process parameters: 629
    Defined mismatch parameters (subckt based): 86
    Non-referenced mismatch parameters: 80
    Number of random variables: 718
    Gaussian truncation for process parameters: 4.00 sigma
    Gaussian truncation for mismatch parameters: 4.00 sigma


Opening the PSF file ../psf/mc1_tran.montecarlo ...

Opening the PSF file ../psf/mc1_finalTimeOP.montecarlo ...

Opening the PSF file ../psf/mc1_modelParameter.montecarlo ...

Opening the PSF file ../psf/mc1_element.montecarlo ...

Opening the PSF file ../psf/mc1_outputParameter.montecarlo ...

Opening the PSF file ../psf/mc1_designParamVals.montecarlo ...

Opening the PSF file ../psf/mc1_primitives.montecarlo ...

Opening the PSF file ../psf/mc1_subckts.montecarlo ...

**** Performing monte carlo loop for `mc1'

1   0.00% 

*****************************************************************************************
* 
* INFO: AMS_processOption = C35B4C3
* 
* INFO: Valid Modules  PIP VG5 HIRES
* 
*****************************************************************************************


Notice from spectre at iteration = 1 during Monte Carlo analysis `mc1'.
    V8: `period' has the unusually large value of 100 s.


***********************************************
Transient Analysis `tran': time = (0 s -> 50 s)
***********************************************

Opening the PSF file ../psf/mc1_separate/001/tran.tran.tran ...

Warning from spectre at iteration = 1 during check, during IC analysis, during transient analysis `tran', during Monte Carlo analysis `mc1'.
    WARNING (CMI-2943): Parameter checks have been ignored because the valid value for parameter 'trise' could not be found in 'C1'.
    WARNING (CMI-2943): Parameter checks have been ignored because the valid value for parameter 'trise' could not be found in 'I0.R2.CM'.
    WARNING (CMI-2943): Parameter checks have been ignored because the valid value for parameter 'trise' could not be found in 'I0.R2.CS1'.
    WARNING (CMI-2943): Parameter checks have been ignored because the valid value for parameter 'trise' could not be found in 'I0.R2.CS0'.
    WARNING (CMI-2943): Parameter checks have been ignored because the valid value for parameter 'trise' could not be found in 'I0.C3.C1'.
        Further occurrences of this warning will be suppressed.

Convergence achieved in 12 iterations.
DC simulation time: CPU = 2.732 ms, elapsed = 2.7318 ms.
Important parameter values:
    start = 0 s
    outputstart = 0 s
    stop = 50 s
    step = 50 ms
    maxstep = 500 ms
    ic = all
    useprevic = no
    skipdc = no
    reltol = 10e-06
    abstol(V) = 1 uV
    abstol(I) = 1 pA
    temp = 85 C
    tnom = 27 C
    tempeffects = all
    errpreset = conservative
    method = gear2only
    lteratio = 10
    relref = alllocal
    cmin = 0 F
    gmin = 1 pS
    rabsshort = 1 mOhm


Notice from spectre at iteration = 1 during transient analysis `tran', during Monte Carlo analysis `mc1'.
    Multithreading is disabled due to the size of the design being too small.


Output and IC/nodeset summary:
                 save   8       (current)
                 save   87      (voltage)

    tran: time = 1.281 s     (2.56 %), step = 102.8 ms     (206 m%)
    tran: time = 4.069 s     (8.14 %), step = 353.5 ms     (707 m%)
    tran: time = 6.327 s     (12.7 %), step = 500 ms          (1 %)
    tran: time = 8.827 s     (17.7 %), step = 500 ms          (1 %)
    tran: time = 11.33 s     (22.7 %), step = 500 ms          (1 %)
    tran: time = 13.83 s     (27.7 %), step = 500 ms          (1 %)
    tran: time = 16.33 s     (32.7 %), step = 500 ms          (1 %)
    tran: time = 18.83 s     (37.7 %), step = 500 ms          (1 %)
    tran: time = 21.33 s     (42.7 %), step = 500 ms          (1 %)
    tran: time = 23.83 s     (47.7 %), step = 500 ms          (1 %)
    tran: time = 26.33 s     (52.7 %), step = 500 ms          (1 %)
    tran: time = 28.83 s     (57.7 %), step = 500 ms          (1 %)
    tran: time = 31.33 s     (62.7 %), step = 500 ms          (1 %)
    tran: time = 33.83 s     (67.7 %), step = 500 ms          (1 %)
    tran: time = 36.33 s     (72.7 %), step = 500 ms          (1 %)
    tran: time = 38.83 s     (77.7 %), step = 500 ms          (1 %)
    tran: time = 41.33 s     (82.7 %), step = 500 ms          (1 %)
    tran: time = 43.83 s     (87.7 %), step = 500 ms          (1 %)
    tran: time = 46.33 s     (92.7 %), step = 500 ms          (1 %)
    tran: time = 48.83 s     (97.7 %), step = 500 ms          (1 %)
Number of accepted tran steps =             740

Maximum value achieved for any signal of each quantity: 
V: V(S<0>) = 3.3 V
I: I(V8:p) = 6.363 uA

~~~~~~~~~~~~~~~~~~~~~~~~~~~~~~~~~
Post-Transient Simulation Summary
~~~~~~~~~~~~~~~~~~~~~~~~~~~~~~~~~
   -   To further speed up simulation, consider
          add ++aps on command line
   -   Non-default settings that could significantly slow down simulation
          errpreset = conservative, default moderate
          reltol = 10e-06, default 100e-06 (conservative)
~~~~~~~~~~~~~~~~~~~~~~~~~~~~~~~~~


During simulation, the CPU load for active processors is :
         0 (96.2 %)      1 (100.0 %)     2 (100.0 %)     3 (3.9 %)
         4 (6.4 %)       5 (4.3 %)       6 (2.5 %)       7 (4.9 %)
         8 (33.7 %)      9 (13.6 %)     10 (5.9 %)      11 (21.0 %)
        12 (28.3 %)     13 (6.4 %)      14 (36.1 %)     15 (32.9 %)
        16 (3.4 %)      17 (19.0 %)     18 (3.4 %)      19 (5.8 %)
        20 (78.5 %)     21 (42.3 %)     22 (100.0 %)    23 (7.4 %)
        24 (6.3 %)      25 (5.4 %)      26 (15.0 %)     27 (3.9 %)
        28 (100.0 %)    29 (3.9 %)      30 (15.9 %)     31 (5.4 %)
        32 (7.8 %)      33 (2.9 %)      34 (6.3 %)      35 (2.9 %)
        36 (10.1 %)     37 (5.8 %)      38 (2.0 %)      39 (3.4 %)
        40 (2.4 %)      41 (97.6 %)     42 (29.1 %)     43 (4.4 %)
        44 (3.9 %)      45 (67.3 %)     46 (2.9 %)      47 (1.5 %)
        Total: 1161.9%
Initial condition solution time: CPU = 2.795 ms, elapsed = 2.79784 ms.
Intrinsic tran analysis time:    CPU = 453.071 ms, elapsed = 454.89 ms.
Total time required for tran analysis `tran': CPU = 458.74 ms, elapsed = 461.135 ms, util. = 99.5%.
Time accumulated: CPU = 1.57489 s, elapsed = 2.15449 s.
Peak resident memory used = 213 Mbytes.


Notice from spectre during transient analysis `tran', during Monte Carlo analysis `mc1'.
    34 warnings suppressed.

finalTimeOP: writing operating point information to rawfile.

Opening the PSF file ../psf/mc1_separate/001/finalTimeOP.info ...
modelParameter: writing model parameter values to rawfile.

Opening the PSF file ../psf/mc1_separate/001/modelParameter.info ...
element: writing instance parameter values to rawfile.

Opening the PSF file ../psf/mc1_separate/001/element.info ...
outputParameter: writing output parameter values to rawfile.

Opening the PSF file ../psf/mc1_separate/001/outputParameter.info ...
designParamVals: writing netlist parameters to rawfile.

Opening the PSFASCII file ../psf/mc1_separate/001/designParamVals.info ...
primitives: writing primitives to rawfile.

Opening the PSFASCII file ../psf/mc1_separate/001/primitives.info.primitives ...
subckts: writing subcircuits to rawfile.

Opening the PSFASCII file ../psf/mc1_separate/001/subckts.info.subckts ...
2   1.01% 

*****************************************************************************************
* 
* INFO: AMS_processOption = C35B4C3
* 
* INFO: Valid Modules  PIP VG5 HIRES
* 
*****************************************************************************************


Notice from spectre during Monte Carlo analysis `mc1'.
    V8: `period' has the unusually large value of 100 s.


***********************************************
Transient Analysis `tran': time = (0 s -> 50 s)
***********************************************

Opening the PSF file ../psf/mc1_separate/002/tran.tran.tran ...

Warning from spectre during check, during IC analysis, during transient analysis `tran', during Monte Carlo analysis `mc1'.
    WARNING (CMI-2943): Parameter checks have been ignored because the valid value for parameter 'trise' could not be found in 'C1'.
    WARNING (CMI-2943): Parameter checks have been ignored because the valid value for parameter 'trise' could not be found in 'I0.R2.CM'.
    WARNING (CMI-2943): Parameter checks have been ignored because the valid value for parameter 'trise' could not be found in 'I0.R2.CS1'.
    WARNING (CMI-2943): Parameter checks have been ignored because the valid value for parameter 'trise' could not be found in 'I0.R2.CS0'.
    WARNING (CMI-2943): Parameter checks have been ignored because the valid value for parameter 'trise' could not be found in 'I0.C3.C1'.
        Further occurrences of this warning will be suppressed.

Convergence achieved in 12 iterations.
DC simulation time: CPU = 2.622 ms, elapsed = 2.63619 ms.
Important parameter values:
    start = 0 s
    outputstart = 0 s
    stop = 50 s
    step = 50 ms
    maxstep = 500 ms
    ic = all
    useprevic = no
    skipdc = no
    reltol = 10e-06
    abstol(V) = 1 uV
    abstol(I) = 1 pA
    temp = 85 C
    tnom = 27 C
    tempeffects = all
    errpreset = conservative
    method = gear2only
    lteratio = 10
    relref = alllocal
    cmin = 0 F
    gmin = 1 pS
    rabsshort = 1 mOhm


Notice from spectre during transient analysis `tran', during Monte Carlo analysis `mc1'.
    Multithreading is disabled due to the size of the design being too small.


Output and IC/nodeset summary:
                 save   8       (current)
                 save   87      (voltage)

    tran: time = 1.361 s     (2.72 %), step = 111.7 ms     (223 m%)
    tran: time = 3.997 s     (7.99 %), step = 348.4 ms     (697 m%)
    tran: time = 6.731 s     (13.5 %), step = 500 ms          (1 %)
    tran: time = 9.231 s     (18.5 %), step = 500 ms          (1 %)
    tran: time = 11.73 s     (23.5 %), step = 500 ms          (1 %)
    tran: time = 14.23 s     (28.5 %), step = 500 ms          (1 %)
    tran: time = 16.73 s     (33.5 %), step = 500 ms          (1 %)
    tran: time = 19.23 s     (38.5 %), step = 500 ms          (1 %)
    tran: time = 21.73 s     (43.5 %), step = 500 ms          (1 %)
    tran: time = 24.23 s     (48.5 %), step = 500 ms          (1 %)
    tran: time = 26.73 s     (53.5 %), step = 500 ms          (1 %)
    tran: time = 29.23 s     (58.5 %), step = 500 ms          (1 %)
    tran: time = 31.73 s     (63.5 %), step = 500 ms          (1 %)
    tran: time = 34.23 s     (68.5 %), step = 500 ms          (1 %)
    tran: time = 36.73 s     (73.5 %), step = 500 ms          (1 %)
    tran: time = 39.23 s     (78.5 %), step = 500 ms          (1 %)
    tran: time = 41.73 s     (83.5 %), step = 500 ms          (1 %)
    tran: time = 44.23 s     (88.5 %), step = 500 ms          (1 %)
    tran: time = 46.73 s     (93.5 %), step = 500 ms          (1 %)
    tran: time = 49.23 s     (98.5 %), step = 500 ms          (1 %)
Number of accepted tran steps =             732

Maximum value achieved for any signal of each quantity: 
V: V(S<0>) = 3.3 V
I: I(V8:p) = 6.395 uA

~~~~~~~~~~~~~~~~~~~~~~~~~~~~~~~~~
Post-Transient Simulation Summary
~~~~~~~~~~~~~~~~~~~~~~~~~~~~~~~~~
   -   To further speed up simulation, consider
          add ++aps on command line
   -   Non-default settings that could significantly slow down simulation
          errpreset = conservative, default moderate
          reltol = 10e-06, default 100e-06 (conservative)
~~~~~~~~~~~~~~~~~~~~~~~~~~~~~~~~~


During simulation, the CPU load for active processors is :
         0 (96.2 %)      1 (100.0 %)     2 (100.0 %)     3 (5.1 %)
         4 (5.2 %)       5 (3.9 %)       6 (3.1 %)       7 (5.1 %)
         8 (27.2 %)      9 (12.4 %)     10 (4.7 %)      11 (20.5 %)
        12 (24.2 %)     13 (5.5 %)      14 (47.7 %)     15 (28.3 %)
        16 (3.1 %)      17 (15.4 %)     18 (20.2 %)     19 (5.4 %)
        20 (82.4 %)     21 (35.0 %)     22 (100.0 %)    23 (20.8 %)
        24 (5.9 %)      25 (4.7 %)      26 (15.2 %)     27 (4.3 %)
        28 (100.0 %)    29 (4.4 %)      30 (13.6 %)     31 (5.9 %)
        32 (9.8 %)      33 (3.6 %)      34 (6.6 %)      35 (3.2 %)
        36 (15.6 %)     37 (7.1 %)      38 (2.0 %)      39 (3.1 %)
        40 (2.7 %)      41 (97.3 %)     42 (23.8 %)     43 (4.7 %)
        44 (3.9 %)      45 (73.3 %)     46 (4.3 %)      47 (1.6 %)
        Total: 1187.8%
Initial condition solution time: CPU = 2.679 ms, elapsed = 2.69318 ms.
Intrinsic tran analysis time:    CPU = 447.262 ms, elapsed = 448.722 ms.
Total time required for tran analysis `tran': CPU = 452.478 ms, elapsed = 454.519 ms, util. = 99.6%.
Time accumulated: CPU = 2.06729 s, elapsed = 2.65979 s.
Peak resident memory used = 213 Mbytes.


Notice from spectre during transient analysis `tran', during Monte Carlo analysis `mc1'.
    34 warnings suppressed.

finalTimeOP: writing operating point information to rawfile.

Opening the PSF file ../psf/mc1_separate/002/finalTimeOP.info ...
modelParameter: writing model parameter values to rawfile.

Opening the PSF file ../psf/mc1_separate/002/modelParameter.info ...
element: writing instance parameter values to rawfile.

Opening the PSF file ../psf/mc1_separate/002/element.info ...
outputParameter: writing output parameter values to rawfile.

Opening the PSF file ../psf/mc1_separate/002/outputParameter.info ...
designParamVals: writing netlist parameters to rawfile.

Opening the PSFASCII file ../psf/mc1_separate/002/designParamVals.info ...
primitives: writing primitives to rawfile.

Opening the PSFASCII file ../psf/mc1_separate/002/primitives.info.primitives ...
subckts: writing subcircuits to rawfile.

Opening the PSFASCII file ../psf/mc1_separate/002/subckts.info.subckts ...
3   2.02% 

*****************************************************************************************
* 
* INFO: AMS_processOption = C35B4C3
* 
* INFO: Valid Modules  PIP VG5 HIRES
* 
*****************************************************************************************


Notice from spectre during Monte Carlo analysis `mc1'.
    V8: `period' has the unusually large value of 100 s.


***********************************************
Transient Analysis `tran': time = (0 s -> 50 s)
***********************************************

Opening the PSF file ../psf/mc1_separate/003/tran.tran.tran ...

Warning from spectre during check, during IC analysis, during transient analysis `tran', during Monte Carlo analysis `mc1'.
    WARNING (CMI-2943): Parameter checks have been ignored because the valid value for parameter 'trise' could not be found in 'C1'.
    WARNING (CMI-2943): Parameter checks have been ignored because the valid value for parameter 'trise' could not be found in 'I0.R2.CM'.
    WARNING (CMI-2943): Parameter checks have been ignored because the valid value for parameter 'trise' could not be found in 'I0.R2.CS1'.
    WARNING (CMI-2943): Parameter checks have been ignored because the valid value for parameter 'trise' could not be found in 'I0.R2.CS0'.
    WARNING (CMI-2943): Parameter checks have been ignored because the valid value for parameter 'trise' could not be found in 'I0.C3.C1'.
        Further occurrences of this warning will be suppressed.

Convergence achieved in 12 iterations.
DC simulation time: CPU = 2.613 ms, elapsed = 2.62785 ms.
Important parameter values:
    start = 0 s
    outputstart = 0 s
    stop = 50 s
    step = 50 ms
    maxstep = 500 ms
    ic = all
    useprevic = no
    skipdc = no
    reltol = 10e-06
    abstol(V) = 1 uV
    abstol(I) = 1 pA
    temp = 85 C
    tnom = 27 C
    tempeffects = all
    errpreset = conservative
    method = gear2only
    lteratio = 10
    relref = alllocal
    cmin = 0 F
    gmin = 1 pS
    rabsshort = 1 mOhm


Notice from spectre during transient analysis `tran', during Monte Carlo analysis `mc1'.
    Multithreading is disabled due to the size of the design being too small.


Output and IC/nodeset summary:
                 save   8       (current)
                 save   87      (voltage)

    tran: time = 1.357 s     (2.71 %), step = 116.7 ms     (233 m%)
    tran: time = 4.103 s     (8.21 %), step = 361.4 ms     (723 m%)
    tran: time = 6.388 s     (12.8 %), step = 500 ms          (1 %)
    tran: time = 8.888 s     (17.8 %), step = 500 ms          (1 %)
    tran: time = 11.39 s     (22.8 %), step = 500 ms          (1 %)
    tran: time = 13.89 s     (27.8 %), step = 500 ms          (1 %)
    tran: time = 16.39 s     (32.8 %), step = 500 ms          (1 %)
    tran: time = 18.89 s     (37.8 %), step = 500 ms          (1 %)
    tran: time = 21.39 s     (42.8 %), step = 500 ms          (1 %)
    tran: time = 23.89 s     (47.8 %), step = 500 ms          (1 %)
    tran: time = 26.39 s     (52.8 %), step = 500 ms          (1 %)
    tran: time = 28.89 s     (57.8 %), step = 500 ms          (1 %)
    tran: time = 31.39 s     (62.8 %), step = 500 ms          (1 %)
    tran: time = 33.89 s     (67.8 %), step = 500 ms          (1 %)
    tran: time = 36.39 s     (72.8 %), step = 500 ms          (1 %)
    tran: time = 38.89 s     (77.8 %), step = 500 ms          (1 %)
    tran: time = 41.39 s     (82.8 %), step = 500 ms          (1 %)
    tran: time = 43.89 s     (87.8 %), step = 500 ms          (1 %)
    tran: time = 46.39 s     (92.8 %), step = 500 ms          (1 %)
    tran: time = 48.89 s     (97.8 %), step = 500 ms          (1 %)
Number of accepted tran steps =             735

Maximum value achieved for any signal of each quantity: 
V: V(S<0>) = 3.3 V
I: I(V8:p) = 6.304 uA

~~~~~~~~~~~~~~~~~~~~~~~~~~~~~~~~~
Post-Transient Simulation Summary
~~~~~~~~~~~~~~~~~~~~~~~~~~~~~~~~~
   -   To further speed up simulation, consider
          add ++aps on command line
   -   Non-default settings that could significantly slow down simulation
          errpreset = conservative, default moderate
          reltol = 10e-06, default 100e-06 (conservative)
~~~~~~~~~~~~~~~~~~~~~~~~~~~~~~~~~


During simulation, the CPU load for active processors is :
         0 (96.5 %)      1 (100.0 %)     2 (100.0 %)     3 (4.9 %)
         4 (4.6 %)       5 (3.2 %)       6 (3.3 %)       7 (4.3 %)
         8 (23.7 %)      9 (11.9 %)     10 (5.2 %)      11 (21.2 %)
        12 (21.4 %)     13 (5.3 %)      14 (56.0 %)     15 (24.4 %)
        16 (3.0 %)      17 (16.1 %)     18 (33.3 %)     19 (6.2 %)
        20 (81.4 %)     21 (30.2 %)     22 (99.7 %)     23 (18.0 %)
        24 (6.2 %)      25 (4.3 %)      26 (13.1 %)     27 (14.4 %)
        28 (100.0 %)    29 (5.0 %)      30 (12.4 %)     31 (5.2 %)
        32 (11.8 %)     33 (4.0 %)      34 (6.5 %)      35 (4.0 %)
        36 (17.2 %)     37 (6.5 %)      38 (2.6 %)      39 (12.7 %)
        40 (3.2 %)      41 (88.1 %)     42 (21.6 %)     43 (4.0 %)
        44 (3.9 %)      45 (74.4 %)     46 (4.5 %)      47 (2.6 %)
        Total: 1202.0%
Initial condition solution time: CPU = 2.666 ms, elapsed = 2.68197 ms.
Intrinsic tran analysis time:    CPU = 451.116 ms, elapsed = 452.985 ms.
Total time required for tran analysis `tran': CPU = 456.131 ms, elapsed = 458.608 ms, util. = 99.5%.
Time accumulated: CPU = 2.56302 s, elapsed = 3.16844 s.
Peak resident memory used = 213 Mbytes.


Notice from spectre during transient analysis `tran', during Monte Carlo analysis `mc1'.
    34 warnings suppressed.

finalTimeOP: writing operating point information to rawfile.

Opening the PSF file ../psf/mc1_separate/003/finalTimeOP.info ...
modelParameter: writing model parameter values to rawfile.

Opening the PSF file ../psf/mc1_separate/003/modelParameter.info ...
element: writing instance parameter values to rawfile.

Opening the PSF file ../psf/mc1_separate/003/element.info ...
outputParameter: writing output parameter values to rawfile.

Opening the PSF file ../psf/mc1_separate/003/outputParameter.info ...
designParamVals: writing netlist parameters to rawfile.

Opening the PSFASCII file ../psf/mc1_separate/003/designParamVals.info ...
primitives: writing primitives to rawfile.

Opening the PSFASCII file ../psf/mc1_separate/003/primitives.info.primitives ...
subckts: writing subcircuits to rawfile.

Opening the PSFASCII file ../psf/mc1_separate/003/subckts.info.subckts ...
4   3.03% 

*****************************************************************************************
* 
* INFO: AMS_processOption = C35B4C3
* 
* INFO: Valid Modules  PIP VG5 HIRES
* 
*****************************************************************************************


Notice from spectre during Monte Carlo analysis `mc1'.
    V8: `period' has the unusually large value of 100 s.


***********************************************
Transient Analysis `tran': time = (0 s -> 50 s)
***********************************************

Opening the PSF file ../psf/mc1_separate/004/tran.tran.tran ...

Warning from spectre during check, during IC analysis, during transient analysis `tran', during Monte Carlo analysis `mc1'.
    WARNING (CMI-2943): Parameter checks have been ignored because the valid value for parameter 'trise' could not be found in 'C1'.
    WARNING (CMI-2943): Parameter checks have been ignored because the valid value for parameter 'trise' could not be found in 'I0.R2.CM'.
    WARNING (CMI-2943): Parameter checks have been ignored because the valid value for parameter 'trise' could not be found in 'I0.R2.CS1'.
    WARNING (CMI-2943): Parameter checks have been ignored because the valid value for parameter 'trise' could not be found in 'I0.R2.CS0'.
    WARNING (CMI-2943): Parameter checks have been ignored because the valid value for parameter 'trise' could not be found in 'I0.C3.C1'.
        Further occurrences of this warning will be suppressed.

Convergence achieved in 12 iterations.
DC simulation time: CPU = 2.526 ms, elapsed = 2.53582 ms.
Important parameter values:
    start = 0 s
    outputstart = 0 s
    stop = 50 s
    step = 50 ms
    maxstep = 500 ms
    ic = all
    useprevic = no
    skipdc = no
    reltol = 10e-06
    abstol(V) = 1 uV
    abstol(I) = 1 pA
    temp = 85 C
    tnom = 27 C
    tempeffects = all
    errpreset = conservative
    method = gear2only
    lteratio = 10
    relref = alllocal
    cmin = 0 F
    gmin = 1 pS
    rabsshort = 1 mOhm


Notice from spectre during transient analysis `tran', during Monte Carlo analysis `mc1'.
    Multithreading is disabled due to the size of the design being too small.


Output and IC/nodeset summary:
                 save   8       (current)
                 save   87      (voltage)

    tran: time = 1.254 s     (2.51 %), step = 107.9 ms     (216 m%)
    tran: time = 3.802 s      (7.6 %), step = 336.6 ms     (673 m%)
    tran: time = 6.473 s     (12.9 %), step = 500 ms          (1 %)
    tran: time = 8.973 s     (17.9 %), step = 500 ms          (1 %)
    tran: time = 11.47 s     (22.9 %), step = 500 ms          (1 %)
    tran: time = 13.97 s     (27.9 %), step = 500 ms          (1 %)
    tran: time = 16.47 s     (32.9 %), step = 500 ms          (1 %)
    tran: time = 18.97 s     (37.9 %), step = 500 ms          (1 %)
    tran: time = 21.47 s     (42.9 %), step = 500 ms          (1 %)
    tran: time = 23.97 s     (47.9 %), step = 500 ms          (1 %)
    tran: time = 26.47 s     (52.9 %), step = 500 ms          (1 %)
    tran: time = 28.97 s     (57.9 %), step = 500 ms          (1 %)
    tran: time = 31.47 s     (62.9 %), step = 500 ms          (1 %)
    tran: time = 33.97 s     (67.9 %), step = 500 ms          (1 %)
    tran: time = 36.47 s     (72.9 %), step = 500 ms          (1 %)
    tran: time = 38.97 s     (77.9 %), step = 500 ms          (1 %)
    tran: time = 41.47 s     (82.9 %), step = 500 ms          (1 %)
    tran: time = 43.97 s     (87.9 %), step = 500 ms          (1 %)
    tran: time = 46.47 s     (92.9 %), step = 500 ms          (1 %)
    tran: time = 48.97 s     (97.9 %), step = 500 ms          (1 %)
Number of accepted tran steps =             739

Maximum value achieved for any signal of each quantity: 
V: V(S<0>) = 3.3 V
I: I(V8:p) = 6.541 uA

~~~~~~~~~~~~~~~~~~~~~~~~~~~~~~~~~
Post-Transient Simulation Summary
~~~~~~~~~~~~~~~~~~~~~~~~~~~~~~~~~
   -   To further speed up simulation, consider
          add ++aps on command line
   -   Non-default settings that could significantly slow down simulation
          errpreset = conservative, default moderate
          reltol = 10e-06, default 100e-06 (conservative)
~~~~~~~~~~~~~~~~~~~~~~~~~~~~~~~~~


During simulation, the CPU load for active processors is :
         0 (96.4 %)      1 (100.0 %)     2 (100.0 %)     3 (4.5 %)
         4 (5.1 %)       5 (3.4 %)       6 (2.8 %)       7 (3.7 %)
         8 (20.4 %)      9 (10.5 %)     10 (5.3 %)      11 (22.0 %)
        12 (19.5 %)     13 (4.8 %)      14 (62.0 %)     15 (21.4 %)
        16 (12.4 %)     17 (28.2 %)     18 (39.7 %)     19 (8.1 %)
        20 (70.4 %)     21 (26.3 %)     22 (90.8 %)     23 (17.5 %)
        24 (5.9 %)      25 (4.2 %)      26 (12.0 %)     27 (26.3 %)
        28 (100.0 %)    29 (4.8 %)      30 (10.7 %)     31 (5.6 %)
        32 (10.7 %)     33 (4.2 %)      34 (8.4 %)      35 (4.3 %)
        36 (15.6 %)     37 (5.6 %)      38 (2.8 %)      39 (24.6 %)
        40 (3.4 %)      41 (76.7 %)     42 (23.3 %)     43 (7.3 %)
        44 (3.9 %)      45 (64.8 %)     46 (4.4 %)      47 (3.1 %)
        Total: 1208.1%
Initial condition solution time: CPU = 2.601 ms, elapsed = 2.61307 ms.
Intrinsic tran analysis time:    CPU = 452.889 ms, elapsed = 454.075 ms.
Total time required for tran analysis `tran': CPU = 457.841 ms, elapsed = 459.61 ms, util. = 99.6%.
Time accumulated: CPU = 3.06103 s, elapsed = 3.67969 s.
Peak resident memory used = 213 Mbytes.


Notice from spectre during transient analysis `tran', during Monte Carlo analysis `mc1'.
    34 warnings suppressed.

finalTimeOP: writing operating point information to rawfile.

Opening the PSF file ../psf/mc1_separate/004/finalTimeOP.info ...
modelParameter: writing model parameter values to rawfile.

Opening the PSF file ../psf/mc1_separate/004/modelParameter.info ...
element: writing instance parameter values to rawfile.

Opening the PSF file ../psf/mc1_separate/004/element.info ...
outputParameter: writing output parameter values to rawfile.

Opening the PSF file ../psf/mc1_separate/004/outputParameter.info ...
designParamVals: writing netlist parameters to rawfile.

Opening the PSFASCII file ../psf/mc1_separate/004/designParamVals.info ...
primitives: writing primitives to rawfile.

Opening the PSFASCII file ../psf/mc1_separate/004/primitives.info.primitives ...
subckts: writing subcircuits to rawfile.

Opening the PSFASCII file ../psf/mc1_separate/004/subckts.info.subckts ...
    mc1: iteration = 4           (3.03 %), step = 1            (1.01 %)
5   4.04% 

*****************************************************************************************
* 
* INFO: AMS_processOption = C35B4C3
* 
* INFO: Valid Modules  PIP VG5 HIRES
* 
*****************************************************************************************


Notice from spectre during Monte Carlo analysis `mc1'.
    V8: `period' has the unusually large value of 100 s.


***********************************************
Transient Analysis `tran': time = (0 s -> 50 s)
***********************************************

Opening the PSF file ../psf/mc1_separate/005/tran.tran.tran ...

Warning from spectre during check, during IC analysis, during transient analysis `tran', during Monte Carlo analysis `mc1'.
    WARNING (CMI-2943): Parameter checks have been ignored because the valid value for parameter 'trise' could not be found in 'C1'.
    WARNING (CMI-2943): Parameter checks have been ignored because the valid value for parameter 'trise' could not be found in 'I0.R2.CM'.
    WARNING (CMI-2943): Parameter checks have been ignored because the valid value for parameter 'trise' could not be found in 'I0.R2.CS1'.
    WARNING (CMI-2943): Parameter checks have been ignored because the valid value for parameter 'trise' could not be found in 'I0.R2.CS0'.
    WARNING (CMI-2943): Parameter checks have been ignored because the valid value for parameter 'trise' could not be found in 'I0.C3.C1'.
        Further occurrences of this warning will be suppressed.

Convergence achieved in 12 iterations.
DC simulation time: CPU = 2.586 ms, elapsed = 2.58613 ms.
Important parameter values:
    start = 0 s
    outputstart = 0 s
    stop = 50 s
    step = 50 ms
    maxstep = 500 ms
    ic = all
    useprevic = no
    skipdc = no
    reltol = 10e-06
    abstol(V) = 1 uV
    abstol(I) = 1 pA
    temp = 85 C
    tnom = 27 C
    tempeffects = all
    errpreset = conservative
    method = gear2only
    lteratio = 10
    relref = alllocal
    cmin = 0 F
    gmin = 1 pS
    rabsshort = 1 mOhm


Notice from spectre during transient analysis `tran', during Monte Carlo analysis `mc1'.
    Multithreading is disabled due to the size of the design being too small.


Output and IC/nodeset summary:
                 save   8       (current)
                 save   87      (voltage)

    tran: time = 1.323 s     (2.65 %), step = 108.6 ms     (217 m%)
    tran: time = 3.89 s      (7.78 %), step = 339.6 ms     (679 m%)
    tran: time = 6.583 s     (13.2 %), step = 500 ms          (1 %)
    tran: time = 9.083 s     (18.2 %), step = 500 ms          (1 %)
    tran: time = 11.58 s     (23.2 %), step = 500 ms          (1 %)
    tran: time = 14.08 s     (28.2 %), step = 500 ms          (1 %)
    tran: time = 16.58 s     (33.2 %), step = 500 ms          (1 %)
    tran: time = 19.08 s     (38.2 %), step = 500 ms          (1 %)
    tran: time = 21.58 s     (43.2 %), step = 500 ms          (1 %)
    tran: time = 24.08 s     (48.2 %), step = 500 ms          (1 %)
    tran: time = 26.58 s     (53.2 %), step = 500 ms          (1 %)
    tran: time = 29.08 s     (58.2 %), step = 500 ms          (1 %)
    tran: time = 31.58 s     (63.2 %), step = 500 ms          (1 %)
    tran: time = 34.08 s     (68.2 %), step = 500 ms          (1 %)
    tran: time = 36.58 s     (73.2 %), step = 500 ms          (1 %)
    tran: time = 39.08 s     (78.2 %), step = 500 ms          (1 %)
    tran: time = 41.58 s     (83.2 %), step = 500 ms          (1 %)
    tran: time = 44.08 s     (88.2 %), step = 500 ms          (1 %)
    tran: time = 46.58 s     (93.2 %), step = 500 ms          (1 %)
    tran: time = 49.08 s     (98.2 %), step = 500 ms          (1 %)
Number of accepted tran steps =             734

Maximum value achieved for any signal of each quantity: 
V: V(S<0>) = 3.3 V
I: I(V8:p) = 6.458 uA

~~~~~~~~~~~~~~~~~~~~~~~~~~~~~~~~~
Post-Transient Simulation Summary
~~~~~~~~~~~~~~~~~~~~~~~~~~~~~~~~~
   -   To further speed up simulation, consider
          add ++aps on command line
   -   Non-default settings that could significantly slow down simulation
          errpreset = conservative, default moderate
          reltol = 10e-06, default 100e-06 (conservative)
~~~~~~~~~~~~~~~~~~~~~~~~~~~~~~~~~


During simulation, the CPU load for active processors is :
         0 (90.8 %)      1 (100.0 %)     2 (100.0 %)     3 (10.2 %)
         4 (6.0 %)       5 (2.9 %)       6 (2.5 %)       7 (3.2 %)
         8 (18.2 %)      9 (9.2 %)      10 (4.7 %)      11 (21.9 %)
        12 (17.8 %)     13 (5.0 %)      14 (56.4 %)     15 (19.1 %)
        16 (11.1 %)     17 (33.2 %)     18 (37.8 %)     19 (19.1 %)
        20 (72.7 %)     21 (23.5 %)     22 (92.0 %)     23 (16.0 %)
        24 (11.8 %)     25 (4.5 %)      26 (11.3 %)     27 (28.6 %)
        28 (100.0 %)    29 (5.0 %)      30 (9.9 %)      31 (7.9 %)
        32 (9.9 %)      33 (4.5 %)      34 (9.9 %)      35 (4.0 %)
        36 (15.1 %)     37 (6.4 %)      38 (3.7 %)      39 (33.2 %)
        40 (4.4 %)      41 (68.0 %)     42 (21.4 %)     43 (6.5 %)
        44 (4.2 %)      45 (57.4 %)     46 (5.1 %)      47 (7.7 %)
        Total: 1213.3%
Initial condition solution time: CPU = 2.642 ms, elapsed = 2.64311 ms.
Intrinsic tran analysis time:    CPU = 448.035 ms, elapsed = 449.147 ms.
Total time required for tran analysis `tran': CPU = 453.374 ms, elapsed = 456.169 ms, util. = 99.4%.
Time accumulated: CPU = 3.55652 s, elapsed = 4.18771 s.
Peak resident memory used = 213 Mbytes.


Notice from spectre during transient analysis `tran', during Monte Carlo analysis `mc1'.
    34 warnings suppressed.

finalTimeOP: writing operating point information to rawfile.

Opening the PSF file ../psf/mc1_separate/005/finalTimeOP.info ...
modelParameter: writing model parameter values to rawfile.

Opening the PSF file ../psf/mc1_separate/005/modelParameter.info ...
element: writing instance parameter values to rawfile.

Opening the PSF file ../psf/mc1_separate/005/element.info ...
outputParameter: writing output parameter values to rawfile.

Opening the PSF file ../psf/mc1_separate/005/outputParameter.info ...
designParamVals: writing netlist parameters to rawfile.

Opening the PSFASCII file ../psf/mc1_separate/005/designParamVals.info ...
primitives: writing primitives to rawfile.

Opening the PSFASCII file ../psf/mc1_separate/005/primitives.info.primitives ...
subckts: writing subcircuits to rawfile.

Opening the PSFASCII file ../psf/mc1_separate/005/subckts.info.subckts ...
    mc1: iteration = 5           (4.04 %), step = 1            (1.01 %)
6   5.05% 

*****************************************************************************************
* 
* INFO: AMS_processOption = C35B4C3
* 
* INFO: Valid Modules  PIP VG5 HIRES
* 
*****************************************************************************************


Notice from spectre during Monte Carlo analysis `mc1'.
    V8: `period' has the unusually large value of 100 s.


***********************************************
Transient Analysis `tran': time = (0 s -> 50 s)
***********************************************

Opening the PSF file ../psf/mc1_separate/006/tran.tran.tran ...

Warning from spectre during check, during IC analysis, during transient analysis `tran', during Monte Carlo analysis `mc1'.
    WARNING (CMI-2943): Parameter checks have been ignored because the valid value for parameter 'trise' could not be found in 'C1'.
    WARNING (CMI-2943): Parameter checks have been ignored because the valid value for parameter 'trise' could not be found in 'I0.R2.CM'.
    WARNING (CMI-2943): Parameter checks have been ignored because the valid value for parameter 'trise' could not be found in 'I0.R2.CS1'.
    WARNING (CMI-2943): Parameter checks have been ignored because the valid value for parameter 'trise' could not be found in 'I0.R2.CS0'.
    WARNING (CMI-2943): Parameter checks have been ignored because the valid value for parameter 'trise' could not be found in 'I0.C3.C1'.
        Further occurrences of this warning will be suppressed.

Convergence achieved in 12 iterations.
DC simulation time: CPU = 2.523 ms, elapsed = 2.52509 ms.
Important parameter values:
    start = 0 s
    outputstart = 0 s
    stop = 50 s
    step = 50 ms
    maxstep = 500 ms
    ic = all
    useprevic = no
    skipdc = no
    reltol = 10e-06
    abstol(V) = 1 uV
    abstol(I) = 1 pA
    temp = 85 C
    tnom = 27 C
    tempeffects = all
    errpreset = conservative
    method = gear2only
    lteratio = 10
    relref = alllocal
    cmin = 0 F
    gmin = 1 pS
    rabsshort = 1 mOhm


Notice from spectre during transient analysis `tran', during Monte Carlo analysis `mc1'.
    Multithreading is disabled due to the size of the design being too small.


Output and IC/nodeset summary:
                 save   8       (current)
                 save   87      (voltage)

    tran: time = 1.279 s     (2.56 %), step = 107.5 ms     (215 m%)
    tran: time = 3.82 s      (7.64 %), step = 336.2 ms     (672 m%)
    tran: time = 6.493 s       (13 %), step = 500 ms          (1 %)
    tran: time = 8.993 s       (18 %), step = 500 ms          (1 %)
    tran: time = 11.49 s       (23 %), step = 500 ms          (1 %)
    tran: time = 13.99 s       (28 %), step = 500 ms          (1 %)
    tran: time = 16.49 s       (33 %), step = 500 ms          (1 %)
    tran: time = 18.99 s       (38 %), step = 500 ms          (1 %)
    tran: time = 21.49 s       (43 %), step = 500 ms          (1 %)
    tran: time = 23.99 s       (48 %), step = 500 ms          (1 %)
    tran: time = 26.49 s       (53 %), step = 500 ms          (1 %)
    tran: time = 28.99 s       (58 %), step = 500 ms          (1 %)
    tran: time = 31.49 s       (63 %), step = 500 ms          (1 %)
    tran: time = 33.99 s       (68 %), step = 500 ms          (1 %)
    tran: time = 36.49 s       (73 %), step = 500 ms          (1 %)
    tran: time = 38.99 s       (78 %), step = 500 ms          (1 %)
    tran: time = 41.49 s       (83 %), step = 500 ms          (1 %)
    tran: time = 43.99 s       (88 %), step = 500 ms          (1 %)
    tran: time = 46.49 s       (93 %), step = 500 ms          (1 %)
    tran: time = 48.99 s       (98 %), step = 500 ms          (1 %)
Number of accepted tran steps =             738

Maximum value achieved for any signal of each quantity: 
V: V(S<0>) = 3.3 V
I: I(V8:p) = 6.487 uA

~~~~~~~~~~~~~~~~~~~~~~~~~~~~~~~~~
Post-Transient Simulation Summary
~~~~~~~~~~~~~~~~~~~~~~~~~~~~~~~~~
   -   To further speed up simulation, consider
          add ++aps on command line
   -   Non-default settings that could significantly slow down simulation
          errpreset = conservative, default moderate
          reltol = 10e-06, default 100e-06 (conservative)
~~~~~~~~~~~~~~~~~~~~~~~~~~~~~~~~~


During simulation, the CPU load for active processors is :
         0 (81.4 %)      1 (100.0 %)     2 (100.0 %)     3 (20.0 %)
         4 (5.7 %)       5 (3.1 %)       6 (2.4 %)       7 (3.1 %)
         8 (16.4 %)      9 (8.2 %)      10 (4.2 %)      11 (19.7 %)
        12 (16.5 %)     13 (4.9 %)      14 (61.2 %)     15 (17.2 %)
        16 (10.3 %)     17 (29.7 %)     18 (33.8 %)     19 (28.0 %)
        20 (67.0 %)     21 (30.9 %)     22 (92.0 %)     23 (16.7 %)
        24 (21.0 %)     25 (4.6 %)      26 (11.2 %)     27 (26.7 %)
        28 (100.0 %)    29 (4.9 %)      30 (9.0 %)      31 (9.0 %)
        32 (9.1 %)      33 (4.9 %)      34 (10.9 %)     35 (4.0 %)
        36 (13.9 %)     37 (11.0 %)     38 (3.5 %)      39 (32.5 %)
        40 (9.2 %)      41 (68.7 %)     42 (19.7 %)     43 (8.1 %)
        44 (4.8 %)      45 (51.5 %)     46 (8.0 %)      47 (7.3 %)
        Total: 1225.8%
Initial condition solution time: CPU = 2.575 ms, elapsed = 2.57587 ms.
Intrinsic tran analysis time:    CPU = 449.009 ms, elapsed = 450.56 ms.
Total time required for tran analysis `tran': CPU = 454.346 ms, elapsed = 456.365 ms, util. = 99.6%.
Time accumulated: CPU = 4.05645 s, elapsed = 4.69966 s.
Peak resident memory used = 213 Mbytes.


Notice from spectre during transient analysis `tran', during Monte Carlo analysis `mc1'.
    34 warnings suppressed.

finalTimeOP: writing operating point information to rawfile.

Opening the PSF file ../psf/mc1_separate/006/finalTimeOP.info ...
modelParameter: writing model parameter values to rawfile.

Opening the PSF file ../psf/mc1_separate/006/modelParameter.info ...
element: writing instance parameter values to rawfile.

Opening the PSF file ../psf/mc1_separate/006/element.info ...
outputParameter: writing output parameter values to rawfile.

Opening the PSF file ../psf/mc1_separate/006/outputParameter.info ...
designParamVals: writing netlist parameters to rawfile.

Opening the PSFASCII file ../psf/mc1_separate/006/designParamVals.info ...
primitives: writing primitives to rawfile.

Opening the PSFASCII file ../psf/mc1_separate/006/primitives.info.primitives ...
subckts: writing subcircuits to rawfile.

Opening the PSFASCII file ../psf/mc1_separate/006/subckts.info.subckts ...
    mc1: iteration = 6           (5.05 %), step = 1            (1.01 %)
7   6.06% 

*****************************************************************************************
* 
* INFO: AMS_processOption = C35B4C3
* 
* INFO: Valid Modules  PIP VG5 HIRES
* 
*****************************************************************************************


Notice from spectre during Monte Carlo analysis `mc1'.
    V8: `period' has the unusually large value of 100 s.


***********************************************
Transient Analysis `tran': time = (0 s -> 50 s)
***********************************************

Opening the PSF file ../psf/mc1_separate/007/tran.tran.tran ...

Warning from spectre during check, during IC analysis, during transient analysis `tran', during Monte Carlo analysis `mc1'.
    WARNING (CMI-2943): Parameter checks have been ignored because the valid value for parameter 'trise' could not be found in 'C1'.
    WARNING (CMI-2943): Parameter checks have been ignored because the valid value for parameter 'trise' could not be found in 'I0.R2.CM'.
    WARNING (CMI-2943): Parameter checks have been ignored because the valid value for parameter 'trise' could not be found in 'I0.R2.CS1'.
    WARNING (CMI-2943): Parameter checks have been ignored because the valid value for parameter 'trise' could not be found in 'I0.R2.CS0'.
    WARNING (CMI-2943): Parameter checks have been ignored because the valid value for parameter 'trise' could not be found in 'I0.C3.C1'.
        Further occurrences of this warning will be suppressed.

Convergence achieved in 12 iterations.
DC simulation time: CPU = 2.675 ms, elapsed = 2.68292 ms.
Important parameter values:
    start = 0 s
    outputstart = 0 s
    stop = 50 s
    step = 50 ms
    maxstep = 500 ms
    ic = all
    useprevic = no
    skipdc = no
    reltol = 10e-06
    abstol(V) = 1 uV
    abstol(I) = 1 pA
    temp = 85 C
    tnom = 27 C
    tempeffects = all
    errpreset = conservative
    method = gear2only
    lteratio = 10
    relref = alllocal
    cmin = 0 F
    gmin = 1 pS
    rabsshort = 1 mOhm


Notice from spectre during transient analysis `tran', during Monte Carlo analysis `mc1'.
    Multithreading is disabled due to the size of the design being too small.


Output and IC/nodeset summary:
                 save   8       (current)
                 save   87      (voltage)

    tran: time = 1.361 s     (2.72 %), step = 113.1 ms     (226 m%)
    tran: time = 4.027 s     (8.05 %), step = 352.1 ms     (704 m%)
    tran: time = 6.277 s     (12.6 %), step = 500 ms          (1 %)
    tran: time = 8.777 s     (17.6 %), step = 500 ms          (1 %)
    tran: time = 11.28 s     (22.6 %), step = 500 ms          (1 %)
    tran: time = 13.78 s     (27.6 %), step = 500 ms          (1 %)
    tran: time = 16.28 s     (32.6 %), step = 500 ms          (1 %)
    tran: time = 18.78 s     (37.6 %), step = 500 ms          (1 %)
    tran: time = 21.28 s     (42.6 %), step = 500 ms          (1 %)
    tran: time = 23.78 s     (47.6 %), step = 500 ms          (1 %)
    tran: time = 26.28 s     (52.6 %), step = 500 ms          (1 %)
    tran: time = 28.78 s     (57.6 %), step = 500 ms          (1 %)
    tran: time = 31.28 s     (62.6 %), step = 500 ms          (1 %)
    tran: time = 33.78 s     (67.6 %), step = 500 ms          (1 %)
    tran: time = 36.28 s     (72.6 %), step = 500 ms          (1 %)
    tran: time = 38.78 s     (77.6 %), step = 500 ms          (1 %)
    tran: time = 41.28 s     (82.6 %), step = 500 ms          (1 %)
    tran: time = 43.78 s     (87.6 %), step = 500 ms          (1 %)
    tran: time = 46.28 s     (92.6 %), step = 500 ms          (1 %)
    tran: time = 48.78 s     (97.6 %), step = 500 ms          (1 %)
Number of accepted tran steps =             735

Maximum value achieved for any signal of each quantity: 
V: V(S<0>) = 3.3 V
I: I(V8:p) = 6.416 uA

~~~~~~~~~~~~~~~~~~~~~~~~~~~~~~~~~
Post-Transient Simulation Summary
~~~~~~~~~~~~~~~~~~~~~~~~~~~~~~~~~
   -   To further speed up simulation, consider
          add ++aps on command line
   -   Non-default settings that could significantly slow down simulation
          errpreset = conservative, default moderate
          reltol = 10e-06, default 100e-06 (conservative)
~~~~~~~~~~~~~~~~~~~~~~~~~~~~~~~~~


During simulation, the CPU load for active processors is :
         0 (74.0 %)      1 (100.0 %)     2 (100.0 %)     3 (27.9 %)
         4 (6.2 %)       5 (3.0 %)       6 (2.4 %)       7 (3.0 %)
         8 (15.2 %)      9 (7.8 %)      10 (4.2 %)      11 (18.6 %)
        12 (16.0 %)     13 (4.6 %)      14 (62.3 %)     15 (15.8 %)
        16 (9.5 %)      17 (27.1 %)     18 (33.0 %)     19 (28.2 %)
        20 (69.5 %)     21 (34.4 %)     22 (92.8 %)     23 (15.7 %)
        24 (28.7 %)     25 (4.8 %)      26 (10.1 %)     27 (25.0 %)
        28 (100.0 %)    29 (4.8 %)      30 (8.3 %)      31 (10.1 %)
        32 (9.9 %)      33 (5.2 %)      34 (11.5 %)     35 (4.0 %)
        36 (14.5 %)     37 (10.1 %)     38 (3.4 %)      39 (30.2 %)
        40 (8.7 %)      41 (71.6 %)     42 (18.6 %)     43 (7.5 %)
        44 (4.7 %)      45 (47.2 %)     46 (13.5 %)     47 (6.7 %)
        Total: 1230.0%
Initial condition solution time: CPU = 2.718 ms, elapsed = 2.72894 ms.
Intrinsic tran analysis time:    CPU = 448.25 ms, elapsed = 449.301 ms.
Total time required for tran analysis `tran': CPU = 453.734 ms, elapsed = 455.344 ms, util. = 99.6%.
Time accumulated: CPU = 4.55141 s, elapsed = 5.20792 s.
Peak resident memory used = 213 Mbytes.


Notice from spectre during transient analysis `tran', during Monte Carlo analysis `mc1'.
    34 warnings suppressed.

finalTimeOP: writing operating point information to rawfile.

Opening the PSF file ../psf/mc1_separate/007/finalTimeOP.info ...
modelParameter: writing model parameter values to rawfile.

Opening the PSF file ../psf/mc1_separate/007/modelParameter.info ...
element: writing instance parameter values to rawfile.

Opening the PSF file ../psf/mc1_separate/007/element.info ...
outputParameter: writing output parameter values to rawfile.

Opening the PSF file ../psf/mc1_separate/007/outputParameter.info ...
designParamVals: writing netlist parameters to rawfile.

Opening the PSFASCII file ../psf/mc1_separate/007/designParamVals.info ...
primitives: writing primitives to rawfile.

Opening the PSFASCII file ../psf/mc1_separate/007/primitives.info.primitives ...
subckts: writing subcircuits to rawfile.

Opening the PSFASCII file ../psf/mc1_separate/007/subckts.info.subckts ...
    mc1: iteration = 7           (6.06 %), step = 1            (1.01 %)
8   7.07% 

*****************************************************************************************
* 
* INFO: AMS_processOption = C35B4C3
* 
* INFO: Valid Modules  PIP VG5 HIRES
* 
*****************************************************************************************


Notice from spectre during Monte Carlo analysis `mc1'.
    V8: `period' has the unusually large value of 100 s.


***********************************************
Transient Analysis `tran': time = (0 s -> 50 s)
***********************************************

Opening the PSF file ../psf/mc1_separate/008/tran.tran.tran ...

Warning from spectre during check, during IC analysis, during transient analysis `tran', during Monte Carlo analysis `mc1'.
    WARNING (CMI-2943): Parameter checks have been ignored because the valid value for parameter 'trise' could not be found in 'C1'.
    WARNING (CMI-2943): Parameter checks have been ignored because the valid value for parameter 'trise' could not be found in 'I0.R2.CM'.
    WARNING (CMI-2943): Parameter checks have been ignored because the valid value for parameter 'trise' could not be found in 'I0.R2.CS1'.
    WARNING (CMI-2943): Parameter checks have been ignored because the valid value for parameter 'trise' could not be found in 'I0.R2.CS0'.
    WARNING (CMI-2943): Parameter checks have been ignored because the valid value for parameter 'trise' could not be found in 'I0.C3.C1'.
        Further occurrences of this warning will be suppressed.

Convergence achieved in 12 iterations.
DC simulation time: CPU = 2.657 ms, elapsed = 2.69508 ms.
Important parameter values:
    start = 0 s
    outputstart = 0 s
    stop = 50 s
    step = 50 ms
    maxstep = 500 ms
    ic = all
    useprevic = no
    skipdc = no
    reltol = 10e-06
    abstol(V) = 1 uV
    abstol(I) = 1 pA
    temp = 85 C
    tnom = 27 C
    tempeffects = all
    errpreset = conservative
    method = gear2only
    lteratio = 10
    relref = alllocal
    cmin = 0 F
    gmin = 1 pS
    rabsshort = 1 mOhm


Notice from spectre during transient analysis `tran', during Monte Carlo analysis `mc1'.
    Multithreading is disabled due to the size of the design being too small.


Output and IC/nodeset summary:
                 save   8       (current)
                 save   87      (voltage)

    tran: time = 1.269 s     (2.54 %), step = 103.4 ms     (207 m%)
    tran: time = 4.07 s      (8.14 %), step = 354.9 ms     (710 m%)
    tran: time = 6.334 s     (12.7 %), step = 500 ms          (1 %)
    tran: time = 8.834 s     (17.7 %), step = 500 ms          (1 %)
    tran: time = 11.33 s     (22.7 %), step = 500 ms          (1 %)
    tran: time = 13.83 s     (27.7 %), step = 500 ms          (1 %)
    tran: time = 16.33 s     (32.7 %), step = 500 ms          (1 %)
    tran: time = 18.83 s     (37.7 %), step = 500 ms          (1 %)
    tran: time = 21.33 s     (42.7 %), step = 500 ms          (1 %)
    tran: time = 23.83 s     (47.7 %), step = 500 ms          (1 %)
    tran: time = 26.33 s     (52.7 %), step = 500 ms          (1 %)
    tran: time = 28.83 s     (57.7 %), step = 500 ms          (1 %)
    tran: time = 31.33 s     (62.7 %), step = 500 ms          (1 %)
    tran: time = 33.83 s     (67.7 %), step = 500 ms          (1 %)
    tran: time = 36.33 s     (72.7 %), step = 500 ms          (1 %)
    tran: time = 38.83 s     (77.7 %), step = 500 ms          (1 %)
    tran: time = 41.33 s     (82.7 %), step = 500 ms          (1 %)
    tran: time = 43.83 s     (87.7 %), step = 500 ms          (1 %)
    tran: time = 46.33 s     (92.7 %), step = 500 ms          (1 %)
    tran: time = 48.83 s     (97.7 %), step = 500 ms          (1 %)
Number of accepted tran steps =             738

Maximum value achieved for any signal of each quantity: 
V: V(S<0>) = 3.3 V
I: I(V8:p) = 6.445 uA

~~~~~~~~~~~~~~~~~~~~~~~~~~~~~~~~~
Post-Transient Simulation Summary
~~~~~~~~~~~~~~~~~~~~~~~~~~~~~~~~~
   -   To further speed up simulation, consider
          add ++aps on command line
   -   Non-default settings that could significantly slow down simulation
          errpreset = conservative, default moderate
          reltol = 10e-06, default 100e-06 (conservative)
~~~~~~~~~~~~~~~~~~~~~~~~~~~~~~~~~


During simulation, the CPU load for active processors is :
         0 (74.5 %)      1 (100.0 %)     2 (100.0 %)     3 (27.5 %)
         4 (5.6 %)       5 (3.1 %)       6 (2.5 %)       7 (2.9 %)
         8 (13.8 %)      9 (7.1 %)      10 (4.1 %)      11 (17.1 %)
        12 (15.4 %)     13 (13.0 %)     14 (57.1 %)     15 (15.1 %)
        16 (9.0 %)      17 (32.9 %)     18 (30.5 %)     19 (28.8 %)
        20 (63.5 %)     21 (37.5 %)     22 (93.5 %)     23 (14.4 %)
        24 (34.4 %)     25 (4.7 %)      26 (9.5 %)      27 (22.8 %)
        28 (100.0 %)    29 (5.1 %)      30 (8.5 %)      31 (10.4 %)
        32 (11.0 %)     33 (4.9 %)      34 (12.4 %)     35 (4.0 %)
        36 (22.4 %)     37 (10.3 %)     38 (3.4 %)      39 (27.6 %)
        40 (7.9 %)      41 (65.6 %)     42 (17.1 %)     43 (15.1 %)
        44 (4.5 %)      45 (43.1 %)     46 (13.7 %)     47 (6.5 %)
        Total: 1233.5%
Initial condition solution time: CPU = 2.703 ms, elapsed = 2.75087 ms.
Intrinsic tran analysis time:    CPU = 454.225 ms, elapsed = 459.428 ms.
Total time required for tran analysis `tran': CPU = 459.473 ms, elapsed = 465.406 ms, util. = 98.7%.
Time accumulated: CPU = 5.05103 s, elapsed = 5.72496 s.
Peak resident memory used = 213 Mbytes.


Notice from spectre during transient analysis `tran', during Monte Carlo analysis `mc1'.
    34 warnings suppressed.

finalTimeOP: writing operating point information to rawfile.

Opening the PSF file ../psf/mc1_separate/008/finalTimeOP.info ...
modelParameter: writing model parameter values to rawfile.

Opening the PSF file ../psf/mc1_separate/008/modelParameter.info ...
element: writing instance parameter values to rawfile.

Opening the PSF file ../psf/mc1_separate/008/element.info ...
outputParameter: writing output parameter values to rawfile.

Opening the PSF file ../psf/mc1_separate/008/outputParameter.info ...
designParamVals: writing netlist parameters to rawfile.

Opening the PSFASCII file ../psf/mc1_separate/008/designParamVals.info ...
primitives: writing primitives to rawfile.

Opening the PSFASCII file ../psf/mc1_separate/008/primitives.info.primitives ...
subckts: writing subcircuits to rawfile.

Opening the PSFASCII file ../psf/mc1_separate/008/subckts.info.subckts ...
    mc1: iteration = 8           (7.07 %), step = 1            (1.01 %)
9   8.08% 

*****************************************************************************************
* 
* INFO: AMS_processOption = C35B4C3
* 
* INFO: Valid Modules  PIP VG5 HIRES
* 
*****************************************************************************************


Notice from spectre during Monte Carlo analysis `mc1'.
    V8: `period' has the unusually large value of 100 s.


***********************************************
Transient Analysis `tran': time = (0 s -> 50 s)
***********************************************

Opening the PSF file ../psf/mc1_separate/009/tran.tran.tran ...

Warning from spectre during check, during IC analysis, during transient analysis `tran', during Monte Carlo analysis `mc1'.
    WARNING (CMI-2943): Parameter checks have been ignored because the valid value for parameter 'trise' could not be found in 'C1'.
    WARNING (CMI-2943): Parameter checks have been ignored because the valid value for parameter 'trise' could not be found in 'I0.R2.CM'.
    WARNING (CMI-2943): Parameter checks have been ignored because the valid value for parameter 'trise' could not be found in 'I0.R2.CS1'.
    WARNING (CMI-2943): Parameter checks have been ignored because the valid value for parameter 'trise' could not be found in 'I0.R2.CS0'.
    WARNING (CMI-2943): Parameter checks have been ignored because the valid value for parameter 'trise' could not be found in 'I0.C3.C1'.
        Further occurrences of this warning will be suppressed.

Convergence achieved in 12 iterations.
DC simulation time: CPU = 2.579 ms, elapsed = 2.58017 ms.
Important parameter values:
    start = 0 s
    outputstart = 0 s
    stop = 50 s
    step = 50 ms
    maxstep = 500 ms
    ic = all
    useprevic = no
    skipdc = no
    reltol = 10e-06
    abstol(V) = 1 uV
    abstol(I) = 1 pA
    temp = 85 C
    tnom = 27 C
    tempeffects = all
    errpreset = conservative
    method = gear2only
    lteratio = 10
    relref = alllocal
    cmin = 0 F
    gmin = 1 pS
    rabsshort = 1 mOhm


Notice from spectre during transient analysis `tran', during Monte Carlo analysis `mc1'.
    Multithreading is disabled due to the size of the design being too small.


Output and IC/nodeset summary:
                 save   8       (current)
                 save   87      (voltage)

    tran: time = 1.28 s      (2.56 %), step = 100.7 ms     (201 m%)
    tran: time = 4.014 s     (8.03 %), step = 347.1 ms     (694 m%)
    tran: time = 6.743 s     (13.5 %), step = 500 ms          (1 %)
    tran: time = 9.243 s     (18.5 %), step = 500 ms          (1 %)
    tran: time = 11.74 s     (23.5 %), step = 500 ms          (1 %)
    tran: time = 14.24 s     (28.5 %), step = 500 ms          (1 %)
    tran: time = 16.74 s     (33.5 %), step = 500 ms          (1 %)
    tran: time = 19.24 s     (38.5 %), step = 500 ms          (1 %)
    tran: time = 21.74 s     (43.5 %), step = 500 ms          (1 %)
    tran: time = 24.24 s     (48.5 %), step = 500 ms          (1 %)
    tran: time = 26.74 s     (53.5 %), step = 500 ms          (1 %)
    tran: time = 29.24 s     (58.5 %), step = 500 ms          (1 %)
    tran: time = 31.74 s     (63.5 %), step = 500 ms          (1 %)
    tran: time = 34.24 s     (68.5 %), step = 500 ms          (1 %)
    tran: time = 36.74 s     (73.5 %), step = 500 ms          (1 %)
    tran: time = 39.24 s     (78.5 %), step = 500 ms          (1 %)
    tran: time = 41.74 s     (83.5 %), step = 500 ms          (1 %)
    tran: time = 44.24 s     (88.5 %), step = 500 ms          (1 %)
    tran: time = 46.74 s     (93.5 %), step = 500 ms          (1 %)
    tran: time = 49.24 s     (98.5 %), step = 500 ms          (1 %)
Number of accepted tran steps =             739

Maximum value achieved for any signal of each quantity: 
V: V(S<0>) = 3.3 V
I: I(V8:p) = 6.31 uA

~~~~~~~~~~~~~~~~~~~~~~~~~~~~~~~~~
Post-Transient Simulation Summary
~~~~~~~~~~~~~~~~~~~~~~~~~~~~~~~~~
   -   To further speed up simulation, consider
          add ++aps on command line
   -   Non-default settings that could significantly slow down simulation
          errpreset = conservative, default moderate
          reltol = 10e-06, default 100e-06 (conservative)
~~~~~~~~~~~~~~~~~~~~~~~~~~~~~~~~~


During simulation, the CPU load for active processors is :
         0 (69.3 %)      1 (100.0 %)     2 (100.0 %)     3 (32.6 %)
         4 (5.3 %)       5 (3.1 %)       6 (3.0 %)       7 (3.0 %)
         8 (12.7 %)      9 (6.7 %)      10 (3.8 %)      11 (15.8 %)
        12 (17.4 %)     13 (12.3 %)     14 (52.9 %)     15 (14.2 %)
        16 (8.9 %)      17 (32.0 %)     18 (33.8 %)     19 (30.0 %)
        20 (59.8 %)     21 (41.8 %)     22 (94.0 %)     23 (15.0 %)
        24 (39.7 %)     25 (4.3 %)      26 (8.9 %)      27 (21.4 %)
        28 (100.0 %)    29 (4.7 %)      30 (7.9 %)      31 (9.8 %)
        32 (11.6 %)     33 (4.8 %)      34 (13.3 %)     35 (3.8 %)
        36 (28.7 %)     37 (9.8 %)      38 (3.1 %)      39 (25.5 %)
        40 (7.2 %)      41 (60.3 %)     42 (16.0 %)     43 (21.9 %)
        44 (4.4 %)      45 (39.6 %)     46 (12.6 %)     47 (6.1 %)
        Total: 1232.8%
Initial condition solution time: CPU = 2.629 ms, elapsed = 2.62904 ms.
Intrinsic tran analysis time:    CPU = 448.997 ms, elapsed = 450.055 ms.
Total time required for tran analysis `tran': CPU = 454.225 ms, elapsed = 455.845 ms, util. = 99.6%.
Time accumulated: CPU = 5.54515 s, elapsed = 6.23115 s.
Peak resident memory used = 213 Mbytes.


Notice from spectre during transient analysis `tran', during Monte Carlo analysis `mc1'.
    34 warnings suppressed.

finalTimeOP: writing operating point information to rawfile.

Opening the PSF file ../psf/mc1_separate/009/finalTimeOP.info ...
modelParameter: writing model parameter values to rawfile.

Opening the PSF file ../psf/mc1_separate/009/modelParameter.info ...
element: writing instance parameter values to rawfile.

Opening the PSF file ../psf/mc1_separate/009/element.info ...
outputParameter: writing output parameter values to rawfile.

Opening the PSF file ../psf/mc1_separate/009/outputParameter.info ...
designParamVals: writing netlist parameters to rawfile.

Opening the PSFASCII file ../psf/mc1_separate/009/designParamVals.info ...
primitives: writing primitives to rawfile.

Opening the PSFASCII file ../psf/mc1_separate/009/primitives.info.primitives ...
subckts: writing subcircuits to rawfile.

Opening the PSFASCII file ../psf/mc1_separate/009/subckts.info.subckts ...
    mc1: iteration = 9           (8.08 %), step = 1            (1.01 %)
10   9.09% 

*****************************************************************************************
* 
* INFO: AMS_processOption = C35B4C3
* 
* INFO: Valid Modules  PIP VG5 HIRES
* 
*****************************************************************************************


Notice from spectre during Monte Carlo analysis `mc1'.
    V8: `period' has the unusually large value of 100 s.


***********************************************
Transient Analysis `tran': time = (0 s -> 50 s)
***********************************************

Opening the PSF file ../psf/mc1_separate/010/tran.tran.tran ...

Warning from spectre during check, during IC analysis, during transient analysis `tran', during Monte Carlo analysis `mc1'.
    WARNING (CMI-2943): Parameter checks have been ignored because the valid value for parameter 'trise' could not be found in 'C1'.
    WARNING (CMI-2943): Parameter checks have been ignored because the valid value for parameter 'trise' could not be found in 'I0.R2.CM'.
    WARNING (CMI-2943): Parameter checks have been ignored because the valid value for parameter 'trise' could not be found in 'I0.R2.CS1'.
    WARNING (CMI-2943): Parameter checks have been ignored because the valid value for parameter 'trise' could not be found in 'I0.R2.CS0'.
    WARNING (CMI-2943): Parameter checks have been ignored because the valid value for parameter 'trise' could not be found in 'I0.C3.C1'.
        Further occurrences of this warning will be suppressed.

Convergence achieved in 12 iterations.
DC simulation time: CPU = 2.573 ms, elapsed = 2.59805 ms.
Important parameter values:
    start = 0 s
    outputstart = 0 s
    stop = 50 s
    step = 50 ms
    maxstep = 500 ms
    ic = all
    useprevic = no
    skipdc = no
    reltol = 10e-06
    abstol(V) = 1 uV
    abstol(I) = 1 pA
    temp = 85 C
    tnom = 27 C
    tempeffects = all
    errpreset = conservative
    method = gear2only
    lteratio = 10
    relref = alllocal
    cmin = 0 F
    gmin = 1 pS
    rabsshort = 1 mOhm


Notice from spectre during transient analysis `tran', during Monte Carlo analysis `mc1'.
    Multithreading is disabled due to the size of the design being too small.


Output and IC/nodeset summary:
                 save   8       (current)
                 save   87      (voltage)

    tran: time = 1.269 s     (2.54 %), step = 107.6 ms     (215 m%)
    tran: time = 3.809 s     (7.62 %), step = 336 ms       (672 m%)
    tran: time = 6.482 s       (13 %), step = 500 ms          (1 %)
    tran: time = 8.982 s       (18 %), step = 500 ms          (1 %)
    tran: time = 11.48 s       (23 %), step = 500 ms          (1 %)
    tran: time = 13.98 s       (28 %), step = 500 ms          (1 %)
    tran: time = 16.48 s       (33 %), step = 500 ms          (1 %)
    tran: time = 18.98 s       (38 %), step = 500 ms          (1 %)
    tran: time = 21.48 s       (43 %), step = 500 ms          (1 %)
    tran: time = 23.98 s       (48 %), step = 500 ms          (1 %)
    tran: time = 26.48 s       (53 %), step = 500 ms          (1 %)
    tran: time = 28.98 s       (58 %), step = 500 ms          (1 %)
    tran: time = 31.48 s       (63 %), step = 500 ms          (1 %)
[...]


***********************************************
Transient Analysis `tran': time = (0 s -> 50 s)
***********************************************

Opening the PSF file ../psf/mc1_separate/098/tran.tran.tran ...

Warning from spectre during check, during IC analysis, during transient analysis `tran', during Monte Carlo analysis `mc1'.
    WARNING (CMI-2943): Parameter checks have been ignored because the valid value for parameter 'trise' could not be found in 'C1'.
    WARNING (CMI-2943): Parameter checks have been ignored because the valid value for parameter 'trise' could not be found in 'I0.R2.CM'.
    WARNING (CMI-2943): Parameter checks have been ignored because the valid value for parameter 'trise' could not be found in 'I0.R2.CS1'.
    WARNING (CMI-2943): Parameter checks have been ignored because the valid value for parameter 'trise' could not be found in 'I0.R2.CS0'.
    WARNING (CMI-2943): Parameter checks have been ignored because the valid value for parameter 'trise' could not be found in 'I0.C3.C1'.
        Further occurrences of this warning will be suppressed.

Convergence achieved in 12 iterations.
DC simulation time: CPU = 2.387 ms, elapsed = 2.388 ms.
Important parameter values:
    start = 0 s
    outputstart = 0 s
    stop = 50 s
    step = 50 ms
    maxstep = 500 ms
    ic = all
    useprevic = no
    skipdc = no
    reltol = 10e-06
    abstol(V) = 1 uV
    abstol(I) = 1 pA
    temp = 85 C
    tnom = 27 C
    tempeffects = all
    errpreset = conservative
    method = gear2only
    lteratio = 10
    relref = alllocal
    cmin = 0 F
    gmin = 1 pS
    rabsshort = 1 mOhm


Notice from spectre during transient analysis `tran', during Monte Carlo analysis `mc1'.
    Multithreading is disabled due to the size of the design being too small.


Output and IC/nodeset summary:
                 save   8       (current)
                 save   87      (voltage)

    tran: time = 1.32 s      (2.64 %), step = 109.5 ms     (219 m%)
    tran: time = 3.909 s     (7.82 %), step = 342.4 ms     (685 m%)
    tran: time = 6.613 s     (13.2 %), step = 500 ms          (1 %)
    tran: time = 9.113 s     (18.2 %), step = 500 ms          (1 %)
    tran: time = 11.61 s     (23.2 %), step = 500 ms          (1 %)
    tran: time = 14.11 s     (28.2 %), step = 500 ms          (1 %)
    tran: time = 16.61 s     (33.2 %), step = 500 ms          (1 %)
    tran: time = 19.11 s     (38.2 %), step = 500 ms          (1 %)
    tran: time = 21.61 s     (43.2 %), step = 500 ms          (1 %)
    tran: time = 24.11 s     (48.2 %), step = 500 ms          (1 %)
    tran: time = 26.61 s     (53.2 %), step = 500 ms          (1 %)
    tran: time = 29.11 s     (58.2 %), step = 500 ms          (1 %)
    tran: time = 31.61 s     (63.2 %), step = 500 ms          (1 %)
    tran: time = 34.11 s     (68.2 %), step = 500 ms          (1 %)
    tran: time = 36.61 s     (73.2 %), step = 500 ms          (1 %)
    tran: time = 39.11 s     (78.2 %), step = 500 ms          (1 %)
    tran: time = 41.61 s     (83.2 %), step = 500 ms          (1 %)
    tran: time = 44.11 s     (88.2 %), step = 500 ms          (1 %)
    tran: time = 46.61 s     (93.2 %), step = 500 ms          (1 %)
    tran: time = 49.11 s     (98.2 %), step = 500 ms          (1 %)
Number of accepted tran steps =             739

Maximum value achieved for any signal of each quantity: 
V: V(S<0>) = 3.3 V
I: I(V8:p) = 6.328 uA

~~~~~~~~~~~~~~~~~~~~~~~~~~~~~~~~~
Post-Transient Simulation Summary
~~~~~~~~~~~~~~~~~~~~~~~~~~~~~~~~~
   -   To further speed up simulation, consider
          add ++aps on command line
   -   Non-default settings that could significantly slow down simulation
          errpreset = conservative, default moderate
          reltol = 10e-06, default 100e-06 (conservative)
~~~~~~~~~~~~~~~~~~~~~~~~~~~~~~~~~


During simulation, the CPU load for active processors is :
         0 (26.9 %)      1 (24.4 %)      2 (100.0 %)     3 (30.2 %)
         4 (7.8 %)       5 (31.6 %)      6 (9.2 %)       7 (17.4 %)
         8 (9.1 %)       9 (54.0 %)     10 (15.3 %)     11 (9.8 %)
        12 (25.6 %)     13 (32.4 %)     14 (34.6 %)     15 (27.6 %)
        16 (20.9 %)     17 (46.3 %)     18 (33.2 %)     19 (30.0 %)
        20 (27.1 %)     21 (33.1 %)     22 (51.9 %)     23 (41.2 %)
        24 (33.5 %)     25 (21.6 %)     26 (10.6 %)     27 (12.6 %)
        28 (51.5 %)     29 (57.7 %)     30 (9.3 %)      31 (18.3 %)
        32 (20.4 %)     33 (10.6 %)     34 (13.5 %)     35 (12.4 %)
        36 (26.9 %)     37 (22.4 %)     38 (25.6 %)     39 (28.1 %)
        40 (27.8 %)     41 (19.0 %)     42 (28.0 %)     43 (28.0 %)
        44 (34.3 %)     45 (27.2 %)     46 (22.5 %)     47 (26.5 %)
        Total: 1327.9%
Initial condition solution time: CPU = 2.429 ms, elapsed = 2.43115 ms.
Intrinsic tran analysis time:    CPU = 405.466 ms, elapsed = 406.698 ms.
Total time required for tran analysis `tran': CPU = 410.506 ms, elapsed = 412.214 ms, util. = 99.6%.
Time accumulated: CPU = 49.4938 s, elapsed = 51.3549 s.
Peak resident memory used = 214 Mbytes.


Notice from spectre during transient analysis `tran', during Monte Carlo analysis `mc1'.
    34 warnings suppressed.

finalTimeOP: writing operating point information to rawfile.

Opening the PSF file ../psf/mc1_separate/098/finalTimeOP.info ...
modelParameter: writing model parameter values to rawfile.

Opening the PSF file ../psf/mc1_separate/098/modelParameter.info ...
element: writing instance parameter values to rawfile.

Opening the PSF file ../psf/mc1_separate/098/element.info ...
outputParameter: writing output parameter values to rawfile.

Opening the PSF file ../psf/mc1_separate/098/outputParameter.info ...
designParamVals: writing netlist parameters to rawfile.

Opening the PSFASCII file ../psf/mc1_separate/098/designParamVals.info ...
primitives: writing primitives to rawfile.

Opening the PSFASCII file ../psf/mc1_separate/098/primitives.info.primitives ...
subckts: writing subcircuits to rawfile.

Opening the PSFASCII file ../psf/mc1_separate/098/subckts.info.subckts ...
    mc1: iteration = 98            (98 %), step = 1            (1.01 %)
99  98.99% 

*****************************************************************************************
* 
* INFO: AMS_processOption = C35B4C3
* 
* INFO: Valid Modules  PIP VG5 HIRES
* 
*****************************************************************************************


Notice from spectre during Monte Carlo analysis `mc1'.
    V8: `period' has the unusually large value of 100 s.


***********************************************
Transient Analysis `tran': time = (0 s -> 50 s)
***********************************************

Opening the PSF file ../psf/mc1_separate/099/tran.tran.tran ...

Warning from spectre during check, during IC analysis, during transient analysis `tran', during Monte Carlo analysis `mc1'.
    WARNING (CMI-2943): Parameter checks have been ignored because the valid value for parameter 'trise' could not be found in 'C1'.
    WARNING (CMI-2943): Parameter checks have been ignored because the valid value for parameter 'trise' could not be found in 'I0.R2.CM'.
    WARNING (CMI-2943): Parameter checks have been ignored because the valid value for parameter 'trise' could not be found in 'I0.R2.CS1'.
    WARNING (CMI-2943): Parameter checks have been ignored because the valid value for parameter 'trise' could not be found in 'I0.R2.CS0'.
    WARNING (CMI-2943): Parameter checks have been ignored because the valid value for parameter 'trise' could not be found in 'I0.C3.C1'.
        Further occurrences of this warning will be suppressed.

Convergence achieved in 12 iterations.
DC simulation time: CPU = 2.255 ms, elapsed = 2.25592 ms.
Important parameter values:
    start = 0 s
    outputstart = 0 s
    stop = 50 s
    step = 50 ms
    maxstep = 500 ms
    ic = all
    useprevic = no
    skipdc = no
    reltol = 10e-06
    abstol(V) = 1 uV
    abstol(I) = 1 pA
    temp = 85 C
    tnom = 27 C
    tempeffects = all
    errpreset = conservative
    method = gear2only
    lteratio = 10
    relref = alllocal
    cmin = 0 F
    gmin = 1 pS
    rabsshort = 1 mOhm


Notice from spectre during transient analysis `tran', during Monte Carlo analysis `mc1'.
    Multithreading is disabled due to the size of the design being too small.


Output and IC/nodeset summary:
                 save   8       (current)
                 save   87      (voltage)

    tran: time = 1.257 s     (2.51 %), step = 105.2 ms     (210 m%)
    tran: time = 4.103 s     (8.21 %), step = 360 ms       (720 m%)
    tran: time = 6.387 s     (12.8 %), step = 500 ms          (1 %)
    tran: time = 8.887 s     (17.8 %), step = 500 ms          (1 %)
    tran: time = 11.39 s     (22.8 %), step = 500 ms          (1 %)
    tran: time = 13.89 s     (27.8 %), step = 500 ms          (1 %)
    tran: time = 16.39 s     (32.8 %), step = 500 ms          (1 %)
    tran: time = 18.89 s     (37.8 %), step = 500 ms          (1 %)
    tran: time = 21.39 s     (42.8 %), step = 500 ms          (1 %)
    tran: time = 23.89 s     (47.8 %), step = 500 ms          (1 %)
    tran: time = 26.39 s     (52.8 %), step = 500 ms          (1 %)
    tran: time = 28.89 s     (57.8 %), step = 500 ms          (1 %)
    tran: time = 31.39 s     (62.8 %), step = 500 ms          (1 %)
    tran: time = 33.89 s     (67.8 %), step = 500 ms          (1 %)
    tran: time = 36.39 s     (72.8 %), step = 500 ms          (1 %)
    tran: time = 38.89 s     (77.8 %), step = 500 ms          (1 %)
    tran: time = 41.39 s     (82.8 %), step = 500 ms          (1 %)
    tran: time = 43.89 s     (87.8 %), step = 500 ms          (1 %)
    tran: time = 46.39 s     (92.8 %), step = 500 ms          (1 %)
    tran: time = 48.89 s     (97.8 %), step = 500 ms          (1 %)
Number of accepted tran steps =             736

Maximum value achieved for any signal of each quantity: 
V: V(S<0>) = 3.3 V
I: I(V8:p) = 6.291 uA

~~~~~~~~~~~~~~~~~~~~~~~~~~~~~~~~~
Post-Transient Simulation Summary
~~~~~~~~~~~~~~~~~~~~~~~~~~~~~~~~~
   -   To further speed up simulation, consider
          add ++aps on command line
   -   Non-default settings that could significantly slow down simulation
          errpreset = conservative, default moderate
          reltol = 10e-06, default 100e-06 (conservative)
~~~~~~~~~~~~~~~~~~~~~~~~~~~~~~~~~


During simulation, the CPU load for active processors is :
         0 (26.9 %)      1 (24.4 %)      2 (100.0 %)     3 (30.9 %)
         4 (8.0 %)       5 (31.9 %)      6 (9.5 %)       7 (17.6 %)
         8 (9.4 %)       9 (53.7 %)     10 (15.3 %)     11 (9.8 %)
        12 (25.8 %)     13 (32.5 %)     14 (34.8 %)     15 (27.5 %)
        16 (21.5 %)     17 (46.0 %)     18 (33.1 %)     19 (30.1 %)
        20 (27.2 %)     21 (33.2 %)     22 (52.2 %)     23 (41.7 %)
        24 (33.6 %)     25 (21.7 %)     26 (11.0 %)     27 (12.9 %)
        28 (51.4 %)     29 (58.1 %)     30 (9.4 %)      31 (18.5 %)
        32 (20.6 %)     33 (10.9 %)     34 (14.2 %)     35 (12.6 %)
        36 (27.1 %)     37 (22.7 %)     38 (25.7 %)     39 (28.1 %)
        40 (27.8 %)     41 (19.2 %)     42 (28.2 %)     43 (28.5 %)
        44 (34.3 %)     45 (27.6 %)     46 (22.8 %)     47 (26.7 %)
        Total: 1336.5%
Initial condition solution time: CPU = 2.293 ms, elapsed = 2.29502 ms.
Intrinsic tran analysis time:    CPU = 413.863 ms, elapsed = 415.121 ms.
Total time required for tran analysis `tran': CPU = 418.732 ms, elapsed = 420.725 ms, util. = 99.5%.
Time accumulated: CPU = 49.9499 s, elapsed = 51.824 s.
Peak resident memory used = 214 Mbytes.


Notice from spectre during transient analysis `tran', during Monte Carlo analysis `mc1'.
    34 warnings suppressed.

finalTimeOP: writing operating point information to rawfile.

Opening the PSF file ../psf/mc1_separate/099/finalTimeOP.info ...
modelParameter: writing model parameter values to rawfile.

Opening the PSF file ../psf/mc1_separate/099/modelParameter.info ...
element: writing instance parameter values to rawfile.

Opening the PSF file ../psf/mc1_separate/099/element.info ...
outputParameter: writing output parameter values to rawfile.

Opening the PSF file ../psf/mc1_separate/099/outputParameter.info ...
designParamVals: writing netlist parameters to rawfile.

Opening the PSFASCII file ../psf/mc1_separate/099/designParamVals.info ...
primitives: writing primitives to rawfile.

Opening the PSFASCII file ../psf/mc1_separate/099/primitives.info.primitives ...
subckts: writing subcircuits to rawfile.

Opening the PSFASCII file ../psf/mc1_separate/099/subckts.info.subckts ...
    mc1: iteration = 99            (99 %), step = 1            (1.01 %)
100 100.00% 

*****************************************************************************************
* 
* INFO: AMS_processOption = C35B4C3
* 
* INFO: Valid Modules  PIP VG5 HIRES
* 
*****************************************************************************************


Notice from spectre during Monte Carlo analysis `mc1'.
    V8: `period' has the unusually large value of 100 s.


***********************************************
Transient Analysis `tran': time = (0 s -> 50 s)
***********************************************

Opening the PSF file ../psf/mc1_separate/100/tran.tran.tran ...

Warning from spectre during check, during IC analysis, during transient analysis `tran', during Monte Carlo analysis `mc1'.
    WARNING (CMI-2943): Parameter checks have been ignored because the valid value for parameter 'trise' could not be found in 'C1'.
    WARNING (CMI-2943): Parameter checks have been ignored because the valid value for parameter 'trise' could not be found in 'I0.R2.CM'.
    WARNING (CMI-2943): Parameter checks have been ignored because the valid value for parameter 'trise' could not be found in 'I0.R2.CS1'.
    WARNING (CMI-2943): Parameter checks have been ignored because the valid value for parameter 'trise' could not be found in 'I0.R2.CS0'.
    WARNING (CMI-2943): Parameter checks have been ignored because the valid value for parameter 'trise' could not be found in 'I0.C3.C1'.
        Further occurrences of this warning will be suppressed.

Convergence achieved in 12 iterations.
DC simulation time: CPU = 2.568 ms, elapsed = 2.64001 ms.
Important parameter values:
    start = 0 s
    outputstart = 0 s
    stop = 50 s
    step = 50 ms
    maxstep = 500 ms
    ic = all
    useprevic = no
    skipdc = no
    reltol = 10e-06
    abstol(V) = 1 uV
    abstol(I) = 1 pA
    temp = 85 C
    tnom = 27 C
    tempeffects = all
    errpreset = conservative
    method = gear2only
    lteratio = 10
    relref = alllocal
    cmin = 0 F
    gmin = 1 pS
    rabsshort = 1 mOhm


Notice from spectre during transient analysis `tran', during Monte Carlo analysis `mc1'.
    Multithreading is disabled due to the size of the design being too small.


Output and IC/nodeset summary:
                 save   8       (current)
                 save   87      (voltage)

    tran: time = 1.289 s     (2.58 %), step = 107.9 ms     (216 m%)
    tran: time = 3.837 s     (7.67 %), step = 337 ms       (674 m%)
    tran: time = 6.516 s       (13 %), step = 500 ms          (1 %)
    tran: time = 9.016 s       (18 %), step = 500 ms          (1 %)
    tran: time = 11.52 s       (23 %), step = 500 ms          (1 %)
    tran: time = 14.02 s       (28 %), step = 500 ms          (1 %)
    tran: time = 16.52 s       (33 %), step = 500 ms          (1 %)
    tran: time = 19.02 s       (38 %), step = 500 ms          (1 %)
    tran: time = 21.52 s       (43 %), step = 500 ms          (1 %)
    tran: time = 24.02 s       (48 %), step = 500 ms          (1 %)
    tran: time = 26.52 s       (53 %), step = 500 ms          (1 %)
    tran: time = 29.02 s       (58 %), step = 500 ms          (1 %)
    tran: time = 31.52 s       (63 %), step = 500 ms          (1 %)
    tran: time = 34.02 s       (68 %), step = 500 ms          (1 %)
    tran: time = 36.52 s       (73 %), step = 500 ms          (1 %)
    tran: time = 39.02 s       (78 %), step = 500 ms          (1 %)
    tran: time = 41.52 s       (83 %), step = 500 ms          (1 %)
    tran: time = 44.02 s       (88 %), step = 500 ms          (1 %)
    tran: time = 46.52 s       (93 %), step = 500 ms          (1 %)
    tran: time = 49.02 s       (98 %), step = 500 ms          (1 %)
Number of accepted tran steps =             736

Maximum value achieved for any signal of each quantity: 
V: V(S<0>) = 3.3 V
I: I(V8:p) = 6.583 uA

~~~~~~~~~~~~~~~~~~~~~~~~~~~~~~~~~
Post-Transient Simulation Summary
~~~~~~~~~~~~~~~~~~~~~~~~~~~~~~~~~
   -   To further speed up simulation, consider
          add ++aps on command line
   -   Non-default settings that could significantly slow down simulation
          errpreset = conservative, default moderate
          reltol = 10e-06, default 100e-06 (conservative)
~~~~~~~~~~~~~~~~~~~~~~~~~~~~~~~~~


During simulation, the CPU load for active processors is :
         0 (27.6 %)      1 (25.0 %)      2 (100.0 %)     3 (31.5 %)
         4 (8.1 %)       5 (32.1 %)      6 (10.0 %)      7 (17.5 %)
         8 (9.7 %)       9 (53.4 %)     10 (15.5 %)     11 (9.8 %)
        12 (25.8 %)     13 (33.0 %)     14 (34.8 %)     15 (27.5 %)
        16 (22.0 %)     17 (46.5 %)     18 (33.2 %)     19 (30.3 %)
        20 (27.1 %)     21 (33.2 %)     22 (52.6 %)     23 (42.0 %)
        24 (34.0 %)     25 (21.6 %)     26 (11.2 %)     27 (13.0 %)
        28 (51.0 %)     29 (58.5 %)     30 (9.6 %)      31 (19.0 %)
        32 (20.6 %)     33 (11.1 %)     34 (14.4 %)     35 (13.3 %)
        36 (27.2 %)     37 (23.5 %)     38 (26.4 %)     39 (28.0 %)
        40 (27.7 %)     41 (19.9 %)     42 (28.9 %)     43 (28.4 %)
        44 (34.3 %)     45 (27.9 %)     46 (22.8 %)     47 (27.3 %)
        Total: 1347.8%
Initial condition solution time: CPU = 2.607 ms, elapsed = 2.68102 ms.
Intrinsic tran analysis time:    CPU = 413.017 ms, elapsed = 425.02 ms.
Total time required for tran analysis `tran': CPU = 418.237 ms, elapsed = 431.109 ms, util. = 97%.
Time accumulated: CPU = 50.4087 s, elapsed = 52.3052 s.
Peak resident memory used = 214 Mbytes.


Notice from spectre during transient analysis `tran', during Monte Carlo analysis `mc1'.
    34 warnings suppressed.

finalTimeOP: writing operating point information to rawfile.

Opening the PSF file ../psf/mc1_separate/100/finalTimeOP.info ...
modelParameter: writing model parameter values to rawfile.

Opening the PSF file ../psf/mc1_separate/100/modelParameter.info ...
element: writing instance parameter values to rawfile.

Opening the PSF file ../psf/mc1_separate/100/element.info ...
outputParameter: writing output parameter values to rawfile.

Opening the PSF file ../psf/mc1_separate/100/outputParameter.info ...
designParamVals: writing netlist parameters to rawfile.

Opening the PSFASCII file ../psf/mc1_separate/100/designParamVals.info ...
primitives: writing primitives to rawfile.

Opening the PSFASCII file ../psf/mc1_separate/100/primitives.info.primitives ...
subckts: writing subcircuits to rawfile.

Opening the PSFASCII file ../psf/mc1_separate/100/subckts.info.subckts ...
    mc1: iteration = 100          (100 %), step = 1            (1.01 %)
Total time required for montecarlo analysis `mc1': CPU = 49.9648 s, elapsed = 51.3155 s, util. = 97.4%.
Time accumulated: CPU = 50.4347 s, elapsed = 52.3428 s.
Peak resident memory used = 214 Mbytes.

Licensing Information:
Lic Summary:
[16:51:03.091969] Cdslmd servers:3000@lic08.ug.kth.se:29000@lic06.ug.kth.se
[16:51:03.616296] Feature usage summary:
[16:51:03.616297] Virtuoso_Multi_mode_Simulation


Aggregate audit (4:51:03 PM, Wed Apr 15, 2026):
Time used: CPU = 50.5 s, elapsed = 52.4 s, util. = 96.4%.
Time spent in licensing: elapsed = 52.6 ms.
Peak memory used = 215 Mbytes.
Simulation started at: 4:50:11 PM, Wed Apr 15, 2026, ended at: 4:51:03 PM, Wed Apr 15, 2026, with elapsed time (wall clock): 52.4 s.
spectre completes with 0 errors, 522 warnings, and 310 notices.
