
Spectre (R) Circuit Simulator
Version 24.1.0.288.isr5 64bit -- 3 Apr 2025
Copyright (C) 1989-2025 Cadence Design Systems, Inc. All rights reserved worldwide. Cadence and Spectre are registered trademarks of Cadence Design Systems, Inc. All others are the property of their respective holders.

Includes RSA BSAFE(R) Cryptographic or Security Protocol Software from RSA Security, Inc.

User: davidevi   Host: il2244vt26_davidevi   HostID: 11AC2C00   PID: 596672
Memory  available: 3.0656 TB  physical: 3.2467 TB
Linux   : Rocky Linux release 8.10 (Green Obsidian)
CPU Type: Intel(R) Xeon(R) CPU E7-8857 v2 @ 3.00GHz
        Socket: Processors [Frequency]
        0:       0 [1200.0],  1 [2999.9],  2 [2999.9],  3 [2999.9],  4 [2746.3]
                 5 [2999.9],  6 [2999.9],  7 [2999.9],  8 [2999.9],  9 [2999.9]
                10 [2999.9], 11 [2999.9]
        1:      12 [3399.9], 13 [3399.9], 14 [3600.0], 15 [2600.0], 16 [3600.0]
                17 [3399.2], 18 [3600.0], 19 [2500.0], 20 [3600.0], 21 [3600.0]
                22 [3399.9], 23 [3600.0]
        2:      24 [2999.9], 25 [2999.9], 26 [1200.0], 27 [1200.0], 28 [2999.9]
                29 [3600.0], 30 [3600.0], 31 [1200.0], 32 [1200.0], 33 [1200.0]
                34 [3400.0], 35 [1200.0]
        3:      36 [2999.9], 37 [1200.0], 38 [1200.0], 39 [2999.9], 40 [2999.9]
                41 [2999.9], 42 [2900.0], 43 [1200.0], 44 [1200.0], 45 [3100.0]
                46 [1200.0], 47 [2999.9]
        
System load averages (1min, 5min, 15min) : 22.1 %, 16.1 %, 15.2 %
HPC is enabled


Simulating `input.scs' on il2244vt26_davidevi at 10:58:09 AM, Mon Mar 23, 2026 (process id: 596672).
Current working directory: /home/davidevi/Desktop/myproject/Sim/ECG_IA/ecg_vga_tb/adexl/results/data/MonteCarlo.3/1/MC/groupRunDataDir/netlist
Command line:
    /opt/tools/cadence/installs/SPECTRE241/tools/bin/spectre -64  \
        input.scs +escchars +log ../psf/spectre.out -format psfbin  \
        +rtsf -raw ../psf +aps +mt +lqtimeout 900 -maxw 5 -maxn 5  \
        +param /opt/pdk/ams/410/spectre/ams_range.lmts -env ade  \
        -ahdllibdir  \
        /home/davidevi/Desktop/myproject/Sim/ECG_IA/ecg_vga_tb/adexl/results/data/MonteCarlo.3/sharedData/Job172/ahdl/input.ahdlSimDB  \
        +logstatus  \
        +adespetkn=0001089D13A302B663E41FB550AF0DF415A679A322D5069144BF588C12F604E07EF416DC01A319B562BB63D35EED18A445A309DB05C2229C7CF92D8770D24F9251AB79D15D9175FF34986BDD0AF002BA50FD7FD707E002A700AC1C861EF940E40EAB79D128F874D3349879D118F874D3349810100447686C5D5900003653

Simulation Id: lwKu8kHaVOSk1ee3
Licensing Information:
[10:58:09.121786] Configured Lic search path (24.01-s002): 3000@lic08.ug.kth.se:29000@lic06.ug.kth.se

Licensing Information:
[10:58:09.082969] Periodic Lic check successful

Loading /opt/tools/cadence/installs/SPECTRE241/tools.lnx86/cmi/lib/64bit/5.0/libinfineon_sh.so ...
Loading /opt/tools/cadence/installs/SPECTRE241/tools.lnx86/cmi/lib/64bit/5.0/libphilips_I_sh.so ...
Loading /opt/tools/cadence/installs/SPECTRE241/tools.lnx86/cmi/lib/64bit/5.0/libphilips_sh.so ...
Loading /opt/tools/cadence/installs/SPECTRE241/tools.lnx86/cmi/lib/64bit/5.0/libsparam_sh.so ...
Loading /opt/tools/cadence/installs/SPECTRE241/tools.lnx86/cmi/lib/64bit/5.0/libstmodels_sh.so ...

Warning from spectre.
    WARNING (SPECTRE-691): This CPU processor does not support x86 advanced vector extensions instructions. This may affect math operations and slow down the simulation.

Reading file:  /home/davidevi/Desktop/myproject/Sim/ECG_IA/ecg_vga_tb/adexl/results/data/MonteCarlo.3/1/MC/groupRunDataDir/netlist/input.scs
Reading file:  /opt/pdk/ams/410/spectre/ams_range.lmts

Warning from spectre during read of parameter soft limits file `/opt/pdk/ams/410/spectre/ams_range.lmts', during circuit read-in.
    WARNING (SPECTRE-8360): line 1511: `ac' is an undefined primitive device.
    WARNING (SPECTRE-8360): line 1512: `ac' is an undefined primitive device.
    WARNING (SPECTRE-8360): line 1513: `ac' is an undefined primitive device.
    WARNING (SPECTRE-8360): line 1514: `ac' is an undefined primitive device.
    WARNING (SPECTRE-8360): line 1515: `ac' is an undefined primitive device.
        Further occurrences of this warning will be suppressed.

Reading file:  /opt/tools/cadence/installs/SPECTRE241/tools.lnx86/spectre/etc/configs/spectre.cfg
Reading file:  /opt/pdk/ams/410/spectre/c35/soac/soac.scs
Reading file:  /opt/pdk/ams/410/spectre/c35/soac/processOption.scs
Reading file:  /opt/pdk/ams/410/spectre/c35/soac/process.scs
Reading file:  /opt/pdk/ams/410/spectre/c35/soac/soac.va

Warning from spectre during AHDL read-in.
    WARNING (VACOMP-2435): The environment variable CDS_AHDLCMI_ENABLE is no longer supported. Therefore, the simulator will use the default compiled C code flow.

Reading link:  /opt/tools/cadence/installs/SPECTRE241/tools.lnx86/spectre/etc/ahdl/constants.h
Reading file:  /opt/tools/cadence/installs/SPECTRE241/tools.lnx86/spectre/etc/ahdl/constants.vams
Reading link:  /opt/tools/cadence/installs/SPECTRE241/tools.lnx86/spectre/etc/ahdl/discipline.h
Reading file:  /opt/tools/cadence/installs/SPECTRE241/tools.lnx86/spectre/etc/ahdl/disciplines.vams
Reading file:  /opt/pdk/ams/410/spectre/c35/processOption/C35B4C3.scs
Reading file:  /opt/pdk/ams/410/spectre/c35/soac/cmos53.scs
Reading file:  /opt/pdk/ams/410/spectre/c35/soac/res.scs
Reading file:  /opt/pdk/ams/410/spectre/c35/soac/cap.scs
Reading file:  /opt/pdk/ams/410/spectre/c35/soac/bip.scs
Reading file:  /opt/pdk/ams/410/spectre/c35/soac/ind.scs
Reading file:  /opt/pdk/ams/410/spectre/c35/soac/esddiode.scs
Time for NDB Parsing: CPU = 194.989 ms, elapsed = 366.576 ms.
Time accumulated: CPU = 370.187 ms, elapsed = 366.577 ms.
Peak resident memory used = 175 Mbytes.

Existing shared object for module modn_ahdl is up to date.
Installed compiled interface for modn_ahdl.
Existing shared object for module rpolyh_ahdl is up to date.
Installed compiled interface for rpolyh_ahdl.
Existing shared object for module cpoly_ahdl is up to date.
Installed compiled interface for cpoly_ahdl.
Existing shared object for module modp_ahdl is up to date.
Installed compiled interface for modp_ahdl.
Opening directory /home/davidevi/Desktop/myproject/Sim/ECG_IA/ecg_vga_tb/adexl/results/data/MonteCarlo.3/sharedData/Job172/ahdl/input.ahdlSimDB/input.ahdlSimDB/ (775)
Created directory /home/davidevi/Desktop/myproject/Sim/ECG_IA/ecg_vga_tb/adexl/results/data/MonteCarlo.3/sharedData/Job172/ahdl/input.ahdlSimDB/input.ahdlSimDB//bsource_fcab9d.va.bsource_fcab9d.ahdlcmi/ (775)
Created directory /home/davidevi/Desktop/myproject/Sim/ECG_IA/ecg_vga_tb/adexl/results/data/MonteCarlo.3/sharedData/Job172/ahdl/input.ahdlSimDB/input.ahdlSimDB//bsource_fcab9d.va.bsource_fcab9d.ahdlcmi/Linux-64/ (775)
Compiling ahdlcmi module library for bsource_fcab9d.
Finished compilation in 1.79 s (elapsed) for bsource_fcab9d.
Installed compiled interface for bsource_fcab9d.
Time for Elaboration: CPU = 192.939 ms, elapsed = 2.0189 s.
Time accumulated: CPU = 563.287 ms, elapsed = 2.38563 s.
Peak resident memory used = 197 Mbytes.


Notice from spectre during hierarchy flattening.
    The value 'psf' specified for the 'checklimitdest' option will no longer be supported in future releases. Use 'spectre -h' to see other recommended values for the 'checklimitdest' option.


*****************************************************************************************
* 
* INFO: AMS_processOption = C35B4C3
* 
* INFO: Valid Modules  PIP VG5 HIRES
* 
*****************************************************************************************



Warning from spectre during hierarchy flattening.
    WARNING (SPECTRE-8527): There are some nodes and instances removed from the netlist topology check. Check the circuit and correct the topology. Or use preserve_inst to keep them if necessary.

***********************************************
  Total removed instances 2 ( dangling 0, terminals connected together 2)  

Warning from spectre during hierarchy flattening.
    WARNING (SPECTRE-8528): The I0.C5.C1 device is removed because its terminals are connected together. Check the device in the netlist file to ensure that this warning can be ignored.
    WARNING (SPECTRE-8528): The I0.MP8 device is removed because its terminals are connected together. Check the device in the netlist file to ensure that this warning can be ignored.


  Total removed nodes 0 ( dangling nodes 0, floating nodes 0 )
***********************************************
Time for EDB Visiting: CPU = 9.041 ms, elapsed = 14.4429 ms.
Time accumulated: CPU = 572.606 ms, elapsed = 2.40035 s.
Peak resident memory used = 199 Mbytes.

Loading /opt/tools/cadence/installs/SPECTRE241/tools.lnx86/mdl/lib/64bit/libSpectreEH_sh.so ...

Warning from spectre during initial setup.
    WARNING (SPECTRE-16460): SOAC_cvarm_vspsub:Specified subcircuit master `cvarm' was not found.
    WARNING (SPECTRE-16462): SOAC_cvarm_vspsub:Error in specification of subcircuit master. Assert is ignored.
    WARNING (SPECTRE-16460): SOAC_cvarm_vbs:Specified subcircuit master `cvarm' was not found.
    WARNING (SPECTRE-16462): SOAC_cvarm_vbs:Error in specification of subcircuit master. Assert is ignored.
    WARNING (SPECTRE-16460): SOAC_cvarm_vgb:Specified subcircuit master `cvarm' was not found.
    WARNING (SPECTRE-16462): SOAC_cvarm_vgb:Error in specification of subcircuit master. Assert is ignored.
    WARNING (SPECTRE-16460): SOAC_cvart_vspsub:Specified subcircuit master `cvart' was not found.
    WARNING (SPECTRE-16462): SOAC_cvart_vspsub:Error in specification of subcircuit master. Assert is ignored.
    WARNING (SPECTRE-16460): SOAC_cvart_vbs:Specified subcircuit master `cvart' was not found.
        Further occurrences of this warning will be suppressed.
    WARNING (SPECTRE-16462): SOAC_cvart_vbs:Error in specification of subcircuit master. Assert is ignored.
        Further occurrences of this warning will be suppressed.
Notice from spectre during topology check.
    Only one connection to the following 52 nodes:
        I0.MN9.psub!
        I0.MN7.psub!
        I0.MN17.psub!
        I0.MN16.psub!
        I0.MN15.psub!
        Further occurrences of this notice will be suppressed.
Notice from spectre during initial setup.
    Multithreading is disabled due to the size of the design being too small.


Netlist title:
        // Point Netlist Generated on: Mar 23 10:58:08 2026


Global user options:
         psfversion = 1.4.0
            vabstol = 1e-06
            iabstol = 1e-12
               temp = 27
           homotopy = 5
              limit = delta
         compatible = spice2
               gmin = 1e-12
             rforce = 1
           maxnotes = 5
           maxwarns = 5
             digits = 5
               cols = 80
             pivrel = 0.001
           sensfile = ../psf/sens.output
     checklimitdest = psf
     enable_pre_ver = yes
      ignorezerovar = yes
               save = allpub
             reltol = 0.0001
               tnom = 27
             scalem = 1
              scale = 1

Scoped user options:

Circuit inventory:
              nodes 81
            bsim3v3 31    
     bsource_fcab9d 2     
          capacitor 42    
         cpoly_ahdl 19    
            isource 1     
          modn_ahdl 16    
          modp_ahdl 15    
           resistor 1     
        rpolyh_ahdl 2     
            vsource 7     

Analysis and control statement inventory:
                 ac 1     
                 dc 1     
               info 8     
         montecarlo 1     
              noise 1     
                 pz 1     
               tran 1     

Output statements:
             .probe 0     
           .measure 0     
               save 0     

Design checks inventory:
          paramtest 53    
             assert 175   


Notice from spectre during initial setup.
    APS enabled.
    1 notice suppressed.
    72 warnings suppressed.

Time for parsing: CPU = 15.817 ms, elapsed = 594.564 ms.
Time accumulated: CPU = 588.529 ms, elapsed = 2.99502 s.
Peak resident memory used = 204 Mbytes.

~~~~~~~~~~~~~~~~~~~~~~
Pre-Simulation Summary
~~~~~~~~~~~~~~~~~~~~~~
   -   (APS) Multi-threading. The recommended number of threads is 1, consider adding +mt=1 on command line.
~~~~~~~~~~~~~~~~~~~~~~

*************************************************
Monte Carlo Analysis `mc1': iteration = (1 -> 13)
*************************************************
Important parameter values:
    seed = 12345
    sampling = lds
    variations = all
    firstrun = 1
    numruns = 13
    nullmfactorcorrelation = no
    donominal = yes
    method = standard

**** Performing nominal run for `mc1'

******************
DC Analysis `dcOp'
******************

Notice from spectre during DC analysis `dcOp', during Monte Carlo analysis `mc1'.
    No checklimit analysis defined for asserts. A default checklimit analysis 'SpectreChecklimitAnal' has been created with all asserts enabled.


Opening the PSF file ../psf/nom/dcOp.dc ...
Important parameter values:
    reltol = 100e-06
    abstol(V) = 1 uV
    abstol(I) = 1 pA
    temp = 27 C
    tnom = 27 C
    tempeffects = all
    gmindc = 1 pS
    rabsshort = 1 mOhm

Notice from spectre during DC analysis `dcOp', during Monte Carlo analysis `mc1'.
    GminDC = 1 pS is large enough to noticeably affect the DC solution.
        dV(VOUT) = -161.141 uV
        Use the `gmin_check' option to eliminate or expand this report.
    Bad pivoting is found during DC analysis. Option dc_pivot_check=yes is recommended for possible improvement of convergence.


Maximum value achieved for any signal of each quantity: 
V: V(net2) = 3.3 V
I: I(V0:p) = 6.32 uA
Maximum value of each quantity, excluding Verilog-A modules or dangling current sources:
V: V(VOUT2) = 1.6 V
I: I(V0:p) = 6.32 uA

Warning from spectre during check, during DC analysis `dcOp', during Monte Carlo analysis `mc1'.
    WARNING (CMI-2943): Parameter checks have been ignored because the valid value for parameter 'trise' could not be found in 'C1'.
    WARNING (CMI-2943): Parameter checks have been ignored because the valid value for parameter 'trise' could not be found in 'I0.C9<2>.C1'.
    WARNING (CMI-2943): Parameter checks have been ignored because the valid value for parameter 'trise' could not be found in 'I0.C9<1>.C1'.
    WARNING (CMI-2943): Parameter checks have been ignored because the valid value for parameter 'trise' could not be found in 'I0.C9<0>.C1'.
    WARNING (CMI-2943): Parameter checks have been ignored because the valid value for parameter 'trise' could not be found in 'I0.C4.C1'.
        Further occurrences of this warning will be suppressed.

Convergence achieved in 18 iterations.
DC simulation time: CPU = 77.61 ms, elapsed = 81.5079 ms.
Total time required for dc analysis `dcOp': CPU = 77.811 ms, elapsed = 81.7139 ms, util. = 95.2%.
Time accumulated: CPU = 688.155 ms, elapsed = 3.09974 s.
Peak resident memory used = 212 Mbytes.


Notice from spectre during Monte Carlo analysis `mc1'.
    37 warnings suppressed.

dcOpInfo: writing operating point information to rawfile.

Opening the PSF file ../psf/nom/dcOpInfo.info ...

****************
PZ Analysis `pz'
****************

Warning from spectre during PZ analysis `pz', during Monte Carlo analysis `mc1'.
    WARNING: BSIM3v3 MOS Transistor - frequency dependent components are present in the circuit, approximated as AC equivalents at 1.000000e+00Hz for pz analysis.
Notice from spectre during DC analysis, during PZ analysis `pz', during Monte Carlo analysis `mc1'.
    GminDC = 1 pS is large enough to noticeably affect the DC solution.
        dV(I0.MP12:int_d) = -161.142 uV
        Use the `gmin_check' option to eliminate or expand this report.
    Bad pivoting is found during DC analysis. Option dc_pivot_check=yes is recommended for possible improvement of convergence.
Warning from spectre during check, during DC analysis, during PZ analysis `pz', during Monte Carlo analysis `mc1'.
    WARNING (CMI-2943): Parameter checks have been ignored because the valid value for parameter 'trise' could not be found in 'C1'.
    WARNING (CMI-2943): Parameter checks have been ignored because the valid value for parameter 'trise' could not be found in 'I0.C9<2>.C1'.
    WARNING (CMI-2943): Parameter checks have been ignored because the valid value for parameter 'trise' could not be found in 'I0.C9<1>.C1'.
    WARNING (CMI-2943): Parameter checks have been ignored because the valid value for parameter 'trise' could not be found in 'I0.C9<0>.C1'.
    WARNING (CMI-2943): Parameter checks have been ignored because the valid value for parameter 'trise' could not be found in 'I0.C4.C1'.
        Further occurrences of this warning will be suppressed.

Convergence achieved in 18 iterations.
DC simulation time: CPU = 2.977 ms, elapsed = 2.97689 ms.

Opening the PSF file ../psf/nom/pz.pz ...

Notice from spectre at 0 during DC analysis, during PZ analysis `pz', during Monte Carlo analysis `mc1'.
    GminDC = 1 pS is large enough to noticeably affect the DC solution.
        dV(I0.MP12:int_d) = -161.141 uV
        Use the `gmin_check' option to eliminate or expand this report.

Convergence achieved in 2 iterations.
DC simulation time: CPU = 802 us, elapsed = 801.802 us.
                      Poles (Hz)

           Real                       Imaginary                 Qfactor

   1   -3.71499e-02                  0.00000e+00              5.00000e-01 
   2   -2.25360e+04                  0.00000e+00              5.00000e-01 
   3   -3.36570e+04                  0.00000e+00              5.00000e-01 
   4   -6.51435e+05                  0.00000e+00              5.00000e-01 
   5   -2.82457e+06                  0.00000e+00              5.00000e-01 
   6   -5.86372e+06              +/- 7.53178e+06              8.13921e-01 
   7   -5.25239e+07                  0.00000e+00              5.00000e-01 
   8   -1.12429e+08                  0.00000e+00              5.00000e-01 
   9   -1.97625e+08                  0.00000e+00              5.00000e-01 
  10   -3.07802e+08                  0.00000e+00              5.00000e-01 
  11   -1.06826e+10                  0.00000e+00              5.00000e-01 
  12   -1.39134e+11                  0.00000e+00              5.00000e-01 
  13   -2.89917e+11                  0.00000e+00              5.00000e-01 
  14   -7.70245e+11                  0.00000e+00              5.00000e-01 
  15   -9.00746e+11                  0.00000e+00              5.00000e-01 

                      Zeros (Hz)
                      at V(VOUT,0)/V2

           Real                       Imaginary                 Qfactor

   1   -2.33149e-03                  0.00000e+00              5.00000e-01 
   2   -2.24372e+04                  0.00000e+00              5.00000e-01 
   3   -5.38097e+05                  0.00000e+00              5.00000e-01 
   4   -1.43299e+06                  0.00000e+00              5.00000e-01 
   5   -2.28746e+06                  0.00000e+00              5.00000e-01 
   6   -5.10439e+07                  0.00000e+00              5.00000e-01 
   7    5.30954e+07              +/- 2.12372e+07              -5.38513e-01
   8   -9.81849e+07                  0.00000e+00              5.00000e-01 
   9   -1.58048e+08                  0.00000e+00              5.00000e-01 
  10   -2.08990e+08                  0.00000e+00              5.00000e-01 
  11   -1.06814e+10                  0.00000e+00              5.00000e-01 
  12   -1.39054e+11                  0.00000e+00              5.00000e-01 
  13   -2.89405e+11                  0.00000e+00              5.00000e-01 
  14   -9.24214e+11              +/- 4.43606e+09              5.00006e-01 

Constant factor =  2.77896e-02

DC gain =  1.00466e+00


Warning from spectre at 0 during PZ analysis `pz', during Monte Carlo analysis `mc1'.
    WARNING (UWI-8101): The specified waveform format 'psf' (improper context for requested action) could not be added. The simulator will ignore the waveform. Check the application programming interface (API) before running the simulation again.
    WARNING (UWI-8101): The specified waveform format 'psf' (improper context for requested action) could not be added. The simulator will ignore the waveform. Check the application programming interface (API) before running the simulation again.
    WARNING (UWI-8101): The specified waveform format 'psf' (improper context for requested action) could not be added. The simulator will ignore the waveform. Check the application programming interface (API) before running the simulation again.
    WARNING (UWI-8101): The specified waveform format 'psf' (improper context for requested action) could not be added. The simulator will ignore the waveform. Check the application programming interface (API) before running the simulation again.
    WARNING (UWI-8101): The specified waveform format 'psf' (improper context for requested action) could not be added. The simulator will ignore the waveform. Check the application programming interface (API) before running the simulation again.
        Further occurrences of this warning will be suppressed.

Accumulated DC solution time =            3.8507 ms.
Intrinsic pz analysis time =              19.7732 ms.
Total time required for pz analysis `pz': CPU = 23.776 ms, elapsed = 24.946 ms, util. = 95.3%.
Time accumulated: CPU = 717.66 ms, elapsed = 3.1327 s.
Peak resident memory used = 218 Mbytes.


Notice from spectre during PZ analysis `pz', during Monte Carlo analysis `mc1'.
    108 warnings suppressed.


************************************************
Transient Analysis `tran': time = (0 s -> 40 ms)
************************************************

Notice from spectre during IC analysis, during transient analysis `tran', during Monte Carlo analysis `mc1'.
    GminDC = 1 pS is large enough to noticeably affect the DC solution.
        dV(VOUT) = -161.141 uV
        Use the `gmin_check' option to eliminate or expand this report.
    Bad pivoting is found during DC analysis. Option dc_pivot_check=yes is recommended for possible improvement of convergence.
Warning from spectre during check, during IC analysis, during transient analysis `tran', during Monte Carlo analysis `mc1'.
    WARNING (CMI-2943): Parameter checks have been ignored because the valid value for parameter 'trise' could not be found in 'C1'.
    WARNING (CMI-2943): Parameter checks have been ignored because the valid value for parameter 'trise' could not be found in 'I0.C9<2>.C1'.
    WARNING (CMI-2943): Parameter checks have been ignored because the valid value for parameter 'trise' could not be found in 'I0.C9<1>.C1'.
    WARNING (CMI-2943): Parameter checks have been ignored because the valid value for parameter 'trise' could not be found in 'I0.C9<0>.C1'.
    WARNING (CMI-2943): Parameter checks have been ignored because the valid value for parameter 'trise' could not be found in 'I0.C4.C1'.
        Further occurrences of this warning will be suppressed.

Convergence achieved in 18 iterations.
DC simulation time: CPU = 2.695 ms, elapsed = 2.69604 ms.

Opening the PSF file ../psf/nom/tran.tran.tran ...
Important parameter values:
    start = 0 s
    outputstart = 0 s
    stop = 40 ms
    step = 40 us
    maxstep = 400 us
    ic = all
    useprevic = no
    skipdc = no
    reltol = 10e-06
    abstol(V) = 1 uV
    abstol(I) = 1 pA
    temp = 27 C
    tnom = 27 C
    tempeffects = all
    errpreset = conservative
    method = gear2only
    lteratio = 10
    relref = alllocal
    cmin = 0 F
    gmin = 1 pS
    rabsshort = 1 mOhm


Notice from spectre during transient analysis `tran', during Monte Carlo analysis `mc1'.
    Multithreading is disabled due to the size of the design being too small.


Output and IC/nodeset summary:
                 save   7       (current)
                 save   81      (voltage)

    tran: time = 1.071 ms    (2.68 %), step = 123.2 us     (308 m%)
    tran: time = 3.049 ms    (7.62 %), step = 302.2 us     (756 m%)
    tran: time = 5.397 ms    (13.5 %), step = 400 us          (1 %)
    tran: time = 7.397 ms    (18.5 %), step = 400 us          (1 %)
    tran: time = 9.397 ms    (23.5 %), step = 400 us          (1 %)
    tran: time = 11.4 ms     (28.5 %), step = 400 us          (1 %)
    tran: time = 13.4 ms     (33.5 %), step = 400 us          (1 %)
    tran: time = 15.4 ms     (38.5 %), step = 400 us          (1 %)
    tran: time = 17.4 ms     (43.5 %), step = 400 us          (1 %)
    tran: time = 19.4 ms     (48.5 %), step = 400 us          (1 %)
    tran: time = 21.4 ms     (53.5 %), step = 400 us          (1 %)
    tran: time = 23.4 ms     (58.5 %), step = 400 us          (1 %)
    tran: time = 25.4 ms     (63.5 %), step = 400 us          (1 %)
    tran: time = 27.4 ms     (68.5 %), step = 400 us          (1 %)
    tran: time = 29.4 ms     (73.5 %), step = 400 us          (1 %)
    tran: time = 31.4 ms     (78.5 %), step = 400 us          (1 %)
    tran: time = 33.4 ms     (83.5 %), step = 400 us          (1 %)
    tran: time = 35.4 ms     (88.5 %), step = 400 us          (1 %)
    tran: time = 37.4 ms     (93.5 %), step = 400 us          (1 %)
    tran: time = 39.4 ms     (98.5 %), step = 400 us          (1 %)
Number of accepted tran steps =             192

Maximum value achieved for any signal of each quantity: 
V: V(net2) = 3.3 V
I: I(V0:p) = 6.382 uA
Maximum value of each quantity, excluding Verilog-A modules or dangling current sources:
V: V(VOUT2) = 1.76 V
I: I(V0:p) = 6.382 uA

~~~~~~~~~~~~~~~~~~~~~~~~~~~~~~~~~
Post-Transient Simulation Summary
~~~~~~~~~~~~~~~~~~~~~~~~~~~~~~~~~
   -   To further speed up simulation, consider
          add ++aps on command line
   -   Non-default settings that could significantly slow down simulation
          errpreset = conservative, default moderate
          reltol = 10e-06, default 100e-06 (conservative)
~~~~~~~~~~~~~~~~~~~~~~~~~~~~~~~~~


During simulation, the CPU load for active processors is :
         0 (29.7 %)      1 (13.7 %)      2 (13.5 %)      3 (7.8 %)
         4 (22.2 %)      5 (100.0 %)     6 (19.6 %)      7 (12.5 %)
         8 (99.4 %)      9 (100.0 %)    10 (17.2 %)     11 (12.6 %)
        12 (26.7 %)     13 (31.3 %)     14 (32.4 %)     15 (47.8 %)
        16 (30.4 %)     17 (37.3 %)     18 (24.2 %)     19 (50.3 %)
        20 (29.3 %)     21 (29.6 %)     22 (76.9 %)     23 (37.5 %)
        24 (42.8 %)     25 (33.2 %)     26 (42.4 %)     27 (27.2 %)
        28 (100.0 %)    29 (33.9 %)     30 (59.6 %)     31 (57.0 %)
        32 (64.2 %)     33 (41.3 %)     34 (40.8 %)     35 (41.7 %)
        36 (100.0 %)    37 (20.4 %)     38 (31.6 %)     39 (44.1 %)
        40 (20.4 %)     41 (10.3 %)     42 (22.1 %)     43 (20.4 %)
        44 (20.7 %)     45 (40.7 %)     46 (16.6 %)     47 (27.8 %)
        Total: 1861.0%
Initial condition solution time: CPU = 2.756 ms, elapsed = 2.75898 ms.
Intrinsic tran analysis time:    CPU = 97.931 ms, elapsed = 99.5059 ms.
Total time required for tran analysis `tran': CPU = 103.386 ms, elapsed = 105.497 ms, util. = 98%.
Time accumulated: CPU = 823.534 ms, elapsed = 3.24193 s.
Peak resident memory used = 222 Mbytes.


Notice from spectre during transient analysis `tran', during Monte Carlo analysis `mc1'.
    37 warnings suppressed.

finalTimeOP: writing operating point information to rawfile.

Opening the PSF file ../psf/nom/finalTimeOP.info ...

********************************************
AC Analysis `ac': freq = (10 mHz -> 100 MHz)
********************************************

Notice from spectre during DC analysis, during AC analysis `ac', during Monte Carlo analysis `mc1'.
    GminDC = 1 pS is large enough to noticeably affect the DC solution.
        dV(I0.MP12:int_d) = -161.142 uV
        Use the `gmin_check' option to eliminate or expand this report.
    Bad pivoting is found during DC analysis. Option dc_pivot_check=yes is recommended for possible improvement of convergence.
Warning from spectre during check, during DC analysis, during AC analysis `ac', during Monte Carlo analysis `mc1'.
    WARNING (CMI-2943): Parameter checks have been ignored because the valid value for parameter 'trise' could not be found in 'C1'.
    WARNING (CMI-2943): Parameter checks have been ignored because the valid value for parameter 'trise' could not be found in 'I0.C9<2>.C1'.
    WARNING (CMI-2943): Parameter checks have been ignored because the valid value for parameter 'trise' could not be found in 'I0.C9<1>.C1'.
    WARNING (CMI-2943): Parameter checks have been ignored because the valid value for parameter 'trise' could not be found in 'I0.C9<0>.C1'.
    WARNING (CMI-2943): Parameter checks have been ignored because the valid value for parameter 'trise' could not be found in 'I0.C4.C1'.
        Further occurrences of this warning will be suppressed.

Convergence achieved in 18 iterations.
DC simulation time: CPU = 2.71 ms, elapsed = 2.7101 ms.

Opening the PSF file ../psf/nom/ac.ac ...
    ac: freq = 18.48 mHz   (2.67 %), step = 1.365 mHz    (333 m%)
    ac: freq = 19.95 mHz      (3 %), step = 1.474 mHz    (333 m%)
    ac: freq = 21.54 mHz   (3.33 %), step = 1.592 mHz    (333 m%)
    ac: freq = 23.26 mHz   (3.67 %), step = 1.719 mHz    (333 m%)
    ac: freq = 25.12 mHz      (4 %), step = 1.856 mHz    (333 m%)
    ac: freq = 27.12 mHz   (4.33 %), step = 2.004 mHz    (333 m%)
    ac: freq = 29.29 mHz   (4.67 %), step = 2.164 mHz    (333 m%)
    ac: freq = 31.62 mHz      (5 %), step = 2.336 mHz    (333 m%)
    ac: freq = 34.15 mHz   (5.33 %), step = 2.523 mHz    (333 m%)
    ac: freq = 36.87 mHz   (5.67 %), step = 2.724 mHz    (333 m%)
    ac: freq = 39.81 mHz      (6 %), step = 2.941 mHz    (333 m%)
    ac: freq = 42.99 mHz   (6.33 %), step = 3.176 mHz    (333 m%)
    ac: freq = 46.42 mHz   (6.67 %), step = 3.429 mHz    (333 m%)
    ac: freq = 50.12 mHz      (7 %), step = 3.703 mHz    (333 m%)
    ac: freq = 54.12 mHz   (7.33 %), step = 3.998 mHz    (333 m%)
    ac: freq = 58.43 mHz   (7.67 %), step = 4.317 mHz    (333 m%)
    ac: freq = 63.1 mHz       (8 %), step = 4.662 mHz    (333 m%)
    ac: freq = 68.13 mHz   (8.33 %), step = 5.033 mHz    (333 m%)
    ac: freq = 73.56 mHz   (8.67 %), step = 5.435 mHz    (333 m%)
    ac: freq = 79.43 mHz      (9 %), step = 5.869 mHz    (333 m%)
    ac: freq = 85.77 mHz   (9.33 %), step = 6.337 mHz    (333 m%)
    ac: freq = 92.61 mHz   (9.67 %), step = 6.842 mHz    (333 m%)
    ac: freq = 100 mHz       (10 %), step = 7.388 mHz    (333 m%)
    ac: freq = 108 mHz     (10.3 %), step = 7.978 mHz    (333 m%)
    ac: freq = 116.6 mHz   (10.7 %), step = 8.614 mHz    (333 m%)
    ac: freq = 125.9 mHz     (11 %), step = 9.301 mHz    (333 m%)
    ac: freq = 135.9 mHz   (11.3 %), step = 10.04 mHz    (333 m%)
    ac: freq = 146.8 mHz   (11.7 %), step = 10.84 mHz    (333 m%)
    ac: freq = 158.5 mHz     (12 %), step = 11.71 mHz    (333 m%)
    ac: freq = 171.1 mHz   (12.3 %), step = 12.64 mHz    (333 m%)
    ac: freq = 184.8 mHz   (12.7 %), step = 13.65 mHz    (333 m%)
    ac: freq = 199.5 mHz     (13 %), step = 14.74 mHz    (333 m%)
    ac: freq = 215.4 mHz   (13.3 %), step = 15.92 mHz    (333 m%)
    ac: freq = 232.6 mHz   (13.7 %), step = 17.19 mHz    (333 m%)
    ac: freq = 251.2 mHz     (14 %), step = 18.56 mHz    (333 m%)
    ac: freq = 271.2 mHz   (14.3 %), step = 20.04 mHz    (333 m%)
    ac: freq = 292.9 mHz   (14.7 %), step = 21.64 mHz    (333 m%)
    ac: freq = 316.2 mHz     (15 %), step = 23.36 mHz    (333 m%)
    ac: freq = 341.5 mHz   (15.3 %), step = 25.23 mHz    (333 m%)
    ac: freq = 368.7 mHz   (15.7 %), step = 27.24 mHz    (333 m%)
    ac: freq = 398.1 mHz     (16 %), step = 29.41 mHz    (333 m%)
    ac: freq = 429.9 mHz   (16.3 %), step = 31.76 mHz    (333 m%)
    ac: freq = 464.2 mHz   (16.7 %), step = 34.29 mHz    (333 m%)
    ac: freq = 501.2 mHz     (17 %), step = 37.03 mHz    (333 m%)
    ac: freq = 541.2 mHz   (17.3 %), step = 39.98 mHz    (333 m%)
    ac: freq = 584.3 mHz   (17.7 %), step = 43.17 mHz    (333 m%)
    ac: freq = 631 mHz       (18 %), step = 46.62 mHz    (333 m%)
    ac: freq = 681.3 mHz   (18.3 %), step = 50.33 mHz    (333 m%)
    ac: freq = 735.6 mHz   (18.7 %), step = 54.35 mHz    (333 m%)
    ac: freq = 794.3 mHz     (19 %), step = 58.69 mHz    (333 m%)
    ac: freq = 857.7 mHz   (19.3 %), step = 63.37 mHz    (333 m%)
    ac: freq = 926.1 mHz   (19.7 %), step = 68.42 mHz    (333 m%)
    ac: freq = 1 Hz          (20 %), step = 73.88 mHz    (333 m%)
    ac: freq = 1.08 Hz     (20.3 %), step = 79.78 mHz    (333 m%)
    ac: freq = 1.166 Hz    (20.7 %), step = 86.14 mHz    (333 m%)
    ac: freq = 1.259 Hz      (21 %), step = 93.01 mHz    (333 m%)
    ac: freq = 1.359 Hz    (21.3 %), step = 100.4 mHz    (333 m%)
    ac: freq = 1.468 Hz    (21.7 %), step = 108.4 mHz    (333 m%)
    ac: freq = 1.585 Hz      (22 %), step = 117.1 mHz    (333 m%)
    ac: freq = 1.711 Hz    (22.3 %), step = 126.4 mHz    (333 m%)
    ac: freq = 1.848 Hz    (22.7 %), step = 136.5 mHz    (333 m%)
    ac: freq = 1.995 Hz      (23 %), step = 147.4 mHz    (333 m%)
    ac: freq = 2.154 Hz    (23.3 %), step = 159.2 mHz    (333 m%)
    ac: freq = 2.326 Hz    (23.7 %), step = 171.9 mHz    (333 m%)
    ac: freq = 2.512 Hz      (24 %), step = 185.6 mHz    (333 m%)
    ac: freq = 2.712 Hz    (24.3 %), step = 200.4 mHz    (333 m%)
    ac: freq = 2.929 Hz    (24.7 %), step = 216.4 mHz    (333 m%)
    ac: freq = 3.162 Hz      (25 %), step = 233.6 mHz    (333 m%)
    ac: freq = 3.415 Hz    (25.3 %), step = 252.3 mHz    (333 m%)
    ac: freq = 3.687 Hz    (25.7 %), step = 272.4 mHz    (333 m%)
    ac: freq = 3.981 Hz      (26 %), step = 294.1 mHz    (333 m%)
    ac: freq = 4.299 Hz    (26.3 %), step = 317.6 mHz    (333 m%)
    ac: freq = 4.642 Hz    (26.7 %), step = 342.9 mHz    (333 m%)
    ac: freq = 5.012 Hz      (27 %), step = 370.3 mHz    (333 m%)
    ac: freq = 5.412 Hz    (27.3 %), step = 399.8 mHz    (333 m%)
    ac: freq = 5.843 Hz    (27.7 %), step = 431.7 mHz    (333 m%)
    ac: freq = 6.31 Hz       (28 %), step = 466.2 mHz    (333 m%)
    ac: freq = 6.813 Hz    (28.3 %), step = 503.3 mHz    (333 m%)
    ac: freq = 7.356 Hz    (28.7 %), step = 543.5 mHz    (333 m%)
    ac: freq = 7.943 Hz      (29 %), step = 586.9 mHz    (333 m%)
    ac: freq = 8.577 Hz    (29.3 %), step = 633.7 mHz    (333 m%)
    ac: freq = 9.261 Hz    (29.7 %), step = 684.2 mHz    (333 m%)
    ac: freq = 10 Hz         (30 %), step = 738.8 mHz    (333 m%)
    ac: freq = 10.8 Hz     (30.3 %), step = 797.8 mHz    (333 m%)
    ac: freq = 11.66 Hz    (30.7 %), step = 861.4 mHz    (333 m%)
    ac: freq = 12.59 Hz      (31 %), step = 930.1 mHz    (333 m%)
    ac: freq = 13.59 Hz    (31.3 %), step = 1.004 Hz     (333 m%)
    ac: freq = 14.68 Hz    (31.7 %), step = 1.084 Hz     (333 m%)
    ac: freq = 15.85 Hz      (32 %), step = 1.171 Hz     (333 m%)
    ac: freq = 17.11 Hz    (32.3 %), step = 1.264 Hz     (333 m%)
    ac: freq = 18.48 Hz    (32.7 %), step = 1.365 Hz     (333 m%)
    ac: freq = 19.95 Hz      (33 %), step = 1.474 Hz     (333 m%)
    ac: freq = 21.54 Hz    (33.3 %), step = 1.592 Hz     (333 m%)
    ac: freq = 23.26 Hz    (33.7 %), step = 1.719 Hz     (333 m%)
    ac: freq = 25.12 Hz      (34 %), step = 1.856 Hz     (333 m%)
    ac: freq = 27.12 Hz    (34.3 %), step = 2.004 Hz     (333 m%)
    ac: freq = 29.29 Hz    (34.7 %), step = 2.164 Hz     (333 m%)
    ac: freq = 31.62 Hz      (35 %), step = 2.336 Hz     (333 m%)
    ac: freq = 34.15 Hz    (35.3 %), step = 2.523 Hz     (333 m%)
    ac: freq = 36.87 Hz    (35.7 %), step = 2.724 Hz     (333 m%)
    ac: freq = 39.81 Hz      (36 %), step = 2.941 Hz     (333 m%)
    ac: freq = 42.99 Hz    (36.3 %), step = 3.176 Hz     (333 m%)
    ac: freq = 46.42 Hz    (36.7 %), step = 3.429 Hz     (333 m%)
    ac: freq = 50.12 Hz      (37 %), step = 3.703 Hz     (333 m%)
    ac: freq = 54.12 Hz    (37.3 %), step = 3.998 Hz     (333 m%)
    ac: freq = 58.43 Hz    (37.7 %), step = 4.317 Hz     (333 m%)
    ac: freq = 63.1 Hz       (38 %), step = 4.662 Hz     (333 m%)
    ac: freq = 68.13 Hz    (38.3 %), step = 5.033 Hz     (333 m%)
    ac: freq = 73.56 Hz    (38.7 %), step = 5.435 Hz     (333 m%)
    ac: freq = 79.43 Hz      (39 %), step = 5.869 Hz     (333 m%)
    ac: freq = 85.77 Hz    (39.3 %), step = 6.337 Hz     (333 m%)
    ac: freq = 92.61 Hz    (39.7 %), step = 6.842 Hz     (333 m%)
    ac: freq = 100 Hz        (40 %), step = 7.388 Hz     (333 m%)
    ac: freq = 108 Hz      (40.3 %), step = 7.978 Hz     (333 m%)
    ac: freq = 116.6 Hz    (40.7 %), step = 8.614 Hz     (333 m%)
    ac: freq = 125.9 Hz      (41 %), step = 9.301 Hz     (333 m%)
    ac: freq = 135.9 Hz    (41.3 %), step = 10.04 Hz     (333 m%)
    ac: freq = 146.8 Hz    (41.7 %), step = 10.84 Hz     (333 m%)
    ac: freq = 158.5 Hz      (42 %), step = 11.71 Hz     (333 m%)
    ac: freq = 171.1 Hz    (42.3 %), step = 12.64 Hz     (333 m%)
    ac: freq = 184.8 Hz    (42.7 %), step = 13.65 Hz     (333 m%)
    ac: freq = 199.5 Hz      (43 %), step = 14.74 Hz     (333 m%)
    ac: freq = 215.4 Hz    (43.3 %), step = 15.92 Hz     (333 m%)
    ac: freq = 232.6 Hz    (43.7 %), step = 17.19 Hz     (333 m%)
    ac: freq = 251.2 Hz      (44 %), step = 18.56 Hz     (333 m%)
    ac: freq = 271.2 Hz    (44.3 %), step = 20.04 Hz     (333 m%)
    ac: freq = 292.9 Hz    (44.7 %), step = 21.64 Hz     (333 m%)
    ac: freq = 316.2 Hz      (45 %), step = 23.36 Hz     (333 m%)
    ac: freq = 341.5 Hz    (45.3 %), step = 25.23 Hz     (333 m%)
    ac: freq = 368.7 Hz    (45.7 %), step = 27.24 Hz     (333 m%)
    ac: freq = 398.1 Hz      (46 %), step = 29.41 Hz     (333 m%)
    ac: freq = 429.9 Hz    (46.3 %), step = 31.76 Hz     (333 m%)
    ac: freq = 464.2 Hz    (46.7 %), step = 34.29 Hz     (333 m%)
    ac: freq = 501.2 Hz      (47 %), step = 37.03 Hz     (333 m%)
    ac: freq = 541.2 Hz    (47.3 %), step = 39.98 Hz     (333 m%)
    ac: freq = 584.3 Hz    (47.7 %), step = 43.17 Hz     (333 m%)
    ac: freq = 631 Hz        (48 %), step = 46.62 Hz     (333 m%)
    ac: freq = 681.3 Hz    (48.3 %), step = 50.33 Hz     (333 m%)
    ac: freq = 735.6 Hz    (48.7 %), step = 54.35 Hz     (333 m%)
    ac: freq = 794.3 Hz      (49 %), step = 58.69 Hz     (333 m%)
    ac: freq = 857.7 Hz    (49.3 %), step = 63.37 Hz     (333 m%)
    ac: freq = 926.1 Hz    (49.7 %), step = 68.42 Hz     (333 m%)
    ac: freq = 1 kHz         (50 %), step = 73.88 Hz     (333 m%)
    ac: freq = 1.08 kHz    (50.3 %), step = 79.78 Hz     (333 m%)
    ac: freq = 1.166 kHz   (50.7 %), step = 86.14 Hz     (333 m%)
    ac: freq = 1.259 kHz     (51 %), step = 93.01 Hz     (333 m%)
    ac: freq = 1.359 kHz   (51.3 %), step = 100.4 Hz     (333 m%)
    ac: freq = 1.468 kHz   (51.7 %), step = 108.4 Hz     (333 m%)
    ac: freq = 1.585 kHz     (52 %), step = 117.1 Hz     (333 m%)
    ac: freq = 1.711 kHz   (52.3 %), step = 126.4 Hz     (333 m%)
    ac: freq = 1.848 kHz   (52.7 %), step = 136.5 Hz     (333 m%)
    ac: freq = 1.995 kHz     (53 %), step = 147.4 Hz     (333 m%)
    ac: freq = 2.154 kHz   (53.3 %), step = 159.2 Hz     (333 m%)
    ac: freq = 2.326 kHz   (53.7 %), step = 171.9 Hz     (333 m%)
    ac: freq = 2.512 kHz     (54 %), step = 185.6 Hz     (333 m%)
    ac: freq = 2.712 kHz   (54.3 %), step = 200.4 Hz     (333 m%)
    ac: freq = 2.929 kHz   (54.7 %), step = 216.4 Hz     (333 m%)
    ac: freq = 3.162 kHz     (55 %), step = 233.6 Hz     (333 m%)
    ac: freq = 3.415 kHz   (55.3 %), step = 252.3 Hz     (333 m%)
    ac: freq = 3.687 kHz   (55.7 %), step = 272.4 Hz     (333 m%)
    ac: freq = 3.981 kHz     (56 %), step = 294.1 Hz     (333 m%)
    ac: freq = 4.299 kHz   (56.3 %), step = 317.6 Hz     (333 m%)
    ac: freq = 4.642 kHz   (56.7 %), step = 342.9 Hz     (333 m%)
    ac: freq = 5.012 kHz     (57 %), step = 370.3 Hz     (333 m%)
    ac: freq = 5.412 kHz   (57.3 %), step = 399.8 Hz     (333 m%)
    ac: freq = 5.843 kHz   (57.7 %), step = 431.7 Hz     (333 m%)
    ac: freq = 6.31 kHz      (58 %), step = 466.2 Hz     (333 m%)
    ac: freq = 6.813 kHz   (58.3 %), step = 503.3 Hz     (333 m%)
    ac: freq = 7.356 kHz   (58.7 %), step = 543.5 Hz     (333 m%)
    ac: freq = 7.943 kHz     (59 %), step = 586.9 Hz     (333 m%)
    ac: freq = 8.577 kHz   (59.3 %), step = 633.7 Hz     (333 m%)
    ac: freq = 9.261 kHz   (59.7 %), step = 684.2 Hz     (333 m%)
    ac: freq = 10 kHz        (60 %), step = 738.8 Hz     (333 m%)
    ac: freq = 10.8 kHz    (60.3 %), step = 797.8 Hz     (333 m%)
    ac: freq = 11.66 kHz   (60.7 %), step = 861.4 Hz     (333 m%)
    ac: freq = 12.59 kHz     (61 %), step = 930.1 Hz     (333 m%)
    ac: freq = 13.59 kHz   (61.3 %), step = 1.004 kHz    (333 m%)
    ac: freq = 14.68 kHz   (61.7 %), step = 1.084 kHz    (333 m%)
    ac: freq = 15.85 kHz     (62 %), step = 1.171 kHz    (333 m%)
    ac: freq = 17.11 kHz   (62.3 %), step = 1.264 kHz    (333 m%)
    ac: freq = 18.48 kHz   (62.7 %), step = 1.365 kHz    (333 m%)
    ac: freq = 19.95 kHz     (63 %), step = 1.474 kHz    (333 m%)
    ac: freq = 21.54 kHz   (63.3 %), step = 1.592 kHz    (333 m%)
    ac: freq = 23.26 kHz   (63.7 %), step = 1.719 kHz    (333 m%)
    ac: freq = 25.12 kHz     (64 %), step = 1.856 kHz    (333 m%)
    ac: freq = 27.12 kHz   (64.3 %), step = 2.004 kHz    (333 m%)
    ac: freq = 29.29 kHz   (64.7 %), step = 2.164 kHz    (333 m%)
    ac: freq = 31.62 kHz     (65 %), step = 2.336 kHz    (333 m%)
    ac: freq = 34.15 kHz   (65.3 %), step = 2.523 kHz    (333 m%)
    ac: freq = 36.87 kHz   (65.7 %), step = 2.724 kHz    (333 m%)
    ac: freq = 39.81 kHz     (66 %), step = 2.941 kHz    (333 m%)
    ac: freq = 42.99 kHz   (66.3 %), step = 3.176 kHz    (333 m%)
    ac: freq = 46.42 kHz   (66.7 %), step = 3.429 kHz    (333 m%)
    ac: freq = 50.12 kHz     (67 %), step = 3.703 kHz    (333 m%)
    ac: freq = 54.12 kHz   (67.3 %), step = 3.998 kHz    (333 m%)
    ac: freq = 58.43 kHz   (67.7 %), step = 4.317 kHz    (333 m%)
    ac: freq = 63.1 kHz      (68 %), step = 4.662 kHz    (333 m%)
    ac: freq = 68.13 kHz   (68.3 %), step = 5.033 kHz    (333 m%)
    ac: freq = 73.56 kHz   (68.7 %), step = 5.435 kHz    (333 m%)
    ac: freq = 79.43 kHz     (69 %), step = 5.869 kHz    (333 m%)
    ac: freq = 85.77 kHz   (69.3 %), step = 6.337 kHz    (333 m%)
    ac: freq = 92.61 kHz   (69.7 %), step = 6.842 kHz    (333 m%)
    ac: freq = 100 kHz       (70 %), step = 7.388 kHz    (333 m%)
    ac: freq = 108 kHz     (70.3 %), step = 7.978 kHz    (333 m%)
    ac: freq = 116.6 kHz   (70.7 %), step = 8.614 kHz    (333 m%)
    ac: freq = 125.9 kHz     (71 %), step = 9.301 kHz    (333 m%)
    ac: freq = 135.9 kHz   (71.3 %), step = 10.04 kHz    (333 m%)
    ac: freq = 146.8 kHz   (71.7 %), step = 10.84 kHz    (333 m%)
    ac: freq = 158.5 kHz     (72 %), step = 11.71 kHz    (333 m%)
    ac: freq = 171.1 kHz   (72.3 %), step = 12.64 kHz    (333 m%)
    ac: freq = 184.8 kHz   (72.7 %), step = 13.65 kHz    (333 m%)
    ac: freq = 199.5 kHz     (73 %), step = 14.74 kHz    (333 m%)
    ac: freq = 215.4 kHz   (73.3 %), step = 15.92 kHz    (333 m%)
    ac: freq = 232.6 kHz   (73.7 %), step = 17.19 kHz    (333 m%)
    ac: freq = 251.2 kHz     (74 %), step = 18.56 kHz    (333 m%)
    ac: freq = 271.2 kHz   (74.3 %), step = 20.04 kHz    (333 m%)
    ac: freq = 292.9 kHz   (74.7 %), step = 21.64 kHz    (333 m%)
    ac: freq = 316.2 kHz     (75 %), step = 23.36 kHz    (333 m%)
    ac: freq = 341.5 kHz   (75.3 %), step = 25.23 kHz    (333 m%)
    ac: freq = 368.7 kHz   (75.7 %), step = 27.24 kHz    (333 m%)
    ac: freq = 398.1 kHz     (76 %), step = 29.41 kHz    (333 m%)
    ac: freq = 429.9 kHz   (76.3 %), step = 31.76 kHz    (333 m%)
    ac: freq = 464.2 kHz   (76.7 %), step = 34.29 kHz    (333 m%)
    ac: freq = 501.2 kHz     (77 %), step = 37.03 kHz    (333 m%)
    ac: freq = 541.2 kHz   (77.3 %), step = 39.98 kHz    (333 m%)
    ac: freq = 584.3 kHz   (77.7 %), step = 43.17 kHz    (333 m%)
    ac: freq = 631 kHz       (78 %), step = 46.62 kHz    (333 m%)
    ac: freq = 681.3 kHz   (78.3 %), step = 50.33 kHz    (333 m%)
    ac: freq = 735.6 kHz   (78.7 %), step = 54.35 kHz    (333 m%)
    ac: freq = 794.3 kHz     (79 %), step = 58.69 kHz    (333 m%)
    ac: freq = 857.7 kHz   (79.3 %), step = 63.37 kHz    (333 m%)
    ac: freq = 926.1 kHz   (79.7 %), step = 68.42 kHz    (333 m%)
    ac: freq = 1 MHz         (80 %), step = 73.88 kHz    (333 m%)
    ac: freq = 1.08 MHz    (80.3 %), step = 79.78 kHz    (333 m%)
    ac: freq = 1.166 MHz   (80.7 %), step = 86.14 kHz    (333 m%)
    ac: freq = 1.259 MHz     (81 %), step = 93.01 kHz    (333 m%)
    ac: freq = 1.359 MHz   (81.3 %), step = 100.4 kHz    (333 m%)
    ac: freq = 1.468 MHz   (81.7 %), step = 108.4 kHz    (333 m%)
    ac: freq = 1.585 MHz     (82 %), step = 117.1 kHz    (333 m%)
    ac: freq = 1.711 MHz   (82.3 %), step = 126.4 kHz    (333 m%)
    ac: freq = 1.848 MHz   (82.7 %), step = 136.5 kHz    (333 m%)
    ac: freq = 1.995 MHz     (83 %), step = 147.4 kHz    (333 m%)
    ac: freq = 2.154 MHz   (83.3 %), step = 159.2 kHz    (333 m%)
    ac: freq = 2.326 MHz   (83.7 %), step = 171.9 kHz    (333 m%)
    ac: freq = 2.512 MHz     (84 %), step = 185.6 kHz    (333 m%)
    ac: freq = 2.712 MHz   (84.3 %), step = 200.4 kHz    (333 m%)
    ac: freq = 2.929 MHz   (84.7 %), step = 216.4 kHz    (333 m%)
    ac: freq = 3.162 MHz     (85 %), step = 233.6 kHz    (333 m%)
    ac: freq = 3.415 MHz   (85.3 %), step = 252.3 kHz    (333 m%)
    ac: freq = 3.687 MHz   (85.7 %), step = 272.4 kHz    (333 m%)
    ac: freq = 3.981 MHz     (86 %), step = 294.1 kHz    (333 m%)
    ac: freq = 4.299 MHz   (86.3 %), step = 317.6 kHz    (333 m%)
    ac: freq = 4.642 MHz   (86.7 %), step = 342.9 kHz    (333 m%)
    ac: freq = 5.012 MHz     (87 %), step = 370.3 kHz    (333 m%)
    ac: freq = 5.412 MHz   (87.3 %), step = 399.8 kHz    (333 m%)
    ac: freq = 5.843 MHz   (87.7 %), step = 431.7 kHz    (333 m%)
    ac: freq = 6.31 MHz      (88 %), step = 466.2 kHz    (333 m%)
    ac: freq = 6.813 MHz   (88.3 %), step = 503.3 kHz    (333 m%)
    ac: freq = 7.356 MHz   (88.7 %), step = 543.5 kHz    (333 m%)
    ac: freq = 7.943 MHz     (89 %), step = 586.9 kHz    (333 m%)
    ac: freq = 8.577 MHz   (89.3 %), step = 633.7 kHz    (333 m%)
    ac: freq = 9.261 MHz   (89.7 %), step = 684.2 kHz    (333 m%)
    ac: freq = 10 MHz        (90 %), step = 738.8 kHz    (333 m%)
    ac: freq = 10.8 MHz    (90.3 %), step = 797.8 kHz    (333 m%)
    ac: freq = 11.66 MHz   (90.7 %), step = 861.4 kHz    (333 m%)
    ac: freq = 12.59 MHz     (91 %), step = 930.1 kHz    (333 m%)
    ac: freq = 13.59 MHz   (91.3 %), step = 1.004 MHz    (333 m%)
    ac: freq = 14.68 MHz   (91.7 %), step = 1.084 MHz    (333 m%)
    ac: freq = 15.85 MHz     (92 %), step = 1.171 MHz    (333 m%)
    ac: freq = 17.11 MHz   (92.3 %), step = 1.264 MHz    (333 m%)
    ac: freq = 18.48 MHz   (92.7 %), step = 1.365 MHz    (333 m%)
    ac: freq = 19.95 MHz     (93 %), step = 1.474 MHz    (333 m%)
    ac: freq = 21.54 MHz   (93.3 %), step = 1.592 MHz    (333 m%)
    ac: freq = 23.26 MHz   (93.7 %), step = 1.719 MHz    (333 m%)
    ac: freq = 25.12 MHz     (94 %), step = 1.856 MHz    (333 m%)
    ac: freq = 27.12 MHz   (94.3 %), step = 2.004 MHz    (333 m%)
    ac: freq = 29.29 MHz   (94.7 %), step = 2.164 MHz    (333 m%)
    ac: freq = 31.62 MHz     (95 %), step = 2.336 MHz    (333 m%)
    ac: freq = 34.15 MHz   (95.3 %), step = 2.523 MHz    (333 m%)
    ac: freq = 36.87 MHz   (95.7 %), step = 2.724 MHz    (333 m%)
    ac: freq = 39.81 MHz     (96 %), step = 2.941 MHz    (333 m%)
    ac: freq = 42.99 MHz   (96.3 %), step = 3.176 MHz    (333 m%)
    ac: freq = 46.42 MHz   (96.7 %), step = 3.429 MHz    (333 m%)
    ac: freq = 50.12 MHz     (97 %), step = 3.703 MHz    (333 m%)
    ac: freq = 54.12 MHz   (97.3 %), step = 3.998 MHz    (333 m%)
    ac: freq = 58.43 MHz   (97.7 %), step = 4.317 MHz    (333 m%)
    ac: freq = 63.1 MHz      (98 %), step = 4.662 MHz    (333 m%)
    ac: freq = 68.13 MHz   (98.3 %), step = 5.033 MHz    (333 m%)
    ac: freq = 73.56 MHz   (98.7 %), step = 5.435 MHz    (333 m%)
    ac: freq = 79.43 MHz     (99 %), step = 5.869 MHz    (333 m%)
    ac: freq = 85.77 MHz   (99.3 %), step = 6.337 MHz    (333 m%)
    ac: freq = 92.61 MHz   (99.7 %), step = 6.842 MHz    (333 m%)
    ac: freq = 100 MHz      (100 %), step = 7.388 MHz    (333 m%)
Accumulated DC solution time =            2.76113 ms.
Intrinsic ac analysis time =              63.0679 ms.
Total time required for ac analysis `ac': CPU = 66.336 ms, elapsed = 67.1151 ms, util. = 98.8%.
Time accumulated: CPU = 895.167 ms, elapsed = 3.31618 s.
Peak resident memory used = 222 Mbytes.


Notice from spectre during AC analysis `ac', during Monte Carlo analysis `mc1'.
    37 warnings suppressed.


**************************************************
Noise Analysis `noise': freq = (10 mHz -> 100 MHz)
**************************************************

Notice from spectre during Noise analysis `noise', during Monte Carlo analysis `mc1'.
    Operating points will not be recomputed: the circuit and conditions were not changed since previous analysis.


Opening the PSF file ../psf/nom/noise.noise ...
    noise: freq = 18.48 mHz   (2.67 %), step = 1.365 mHz    (333 m%)
    noise: freq = 19.95 mHz      (3 %), step = 1.474 mHz    (333 m%)
    noise: freq = 21.54 mHz   (3.33 %), step = 1.592 mHz    (333 m%)
    noise: freq = 23.26 mHz   (3.67 %), step = 1.719 mHz    (333 m%)
    noise: freq = 25.12 mHz      (4 %), step = 1.856 mHz    (333 m%)
    noise: freq = 27.12 mHz   (4.33 %), step = 2.004 mHz    (333 m%)
    noise: freq = 29.29 mHz   (4.67 %), step = 2.164 mHz    (333 m%)
    noise: freq = 31.62 mHz      (5 %), step = 2.336 mHz    (333 m%)
    noise: freq = 34.15 mHz   (5.33 %), step = 2.523 mHz    (333 m%)
    noise: freq = 36.87 mHz   (5.67 %), step = 2.724 mHz    (333 m%)
    noise: freq = 39.81 mHz      (6 %), step = 2.941 mHz    (333 m%)
    noise: freq = 42.99 mHz   (6.33 %), step = 3.176 mHz    (333 m%)
    noise: freq = 46.42 mHz   (6.67 %), step = 3.429 mHz    (333 m%)
    noise: freq = 50.12 mHz      (7 %), step = 3.703 mHz    (333 m%)
    noise: freq = 54.12 mHz   (7.33 %), step = 3.998 mHz    (333 m%)
    noise: freq = 58.43 mHz   (7.67 %), step = 4.317 mHz    (333 m%)
    noise: freq = 63.1 mHz       (8 %), step = 4.662 mHz    (333 m%)
    noise: freq = 68.13 mHz   (8.33 %), step = 5.033 mHz    (333 m%)
    noise: freq = 73.56 mHz   (8.67 %), step = 5.435 mHz    (333 m%)
    noise: freq = 79.43 mHz      (9 %), step = 5.869 mHz    (333 m%)
    noise: freq = 85.77 mHz   (9.33 %), step = 6.337 mHz    (333 m%)
    noise: freq = 92.61 mHz   (9.67 %), step = 6.842 mHz    (333 m%)
    noise: freq = 100 mHz       (10 %), step = 7.388 mHz    (333 m%)
    noise: freq = 108 mHz     (10.3 %), step = 7.978 mHz    (333 m%)
    noise: freq = 116.6 mHz   (10.7 %), step = 8.614 mHz    (333 m%)
    noise: freq = 125.9 mHz     (11 %), step = 9.301 mHz    (333 m%)
    noise: freq = 135.9 mHz   (11.3 %), step = 10.04 mHz    (333 m%)
    noise: freq = 146.8 mHz   (11.7 %), step = 10.84 mHz    (333 m%)
    noise: freq = 158.5 mHz     (12 %), step = 11.71 mHz    (333 m%)
    noise: freq = 171.1 mHz   (12.3 %), step = 12.64 mHz    (333 m%)
    noise: freq = 184.8 mHz   (12.7 %), step = 13.65 mHz    (333 m%)
    noise: freq = 199.5 mHz     (13 %), step = 14.74 mHz    (333 m%)
    noise: freq = 215.4 mHz   (13.3 %), step = 15.92 mHz    (333 m%)
    noise: freq = 232.6 mHz   (13.7 %), step = 17.19 mHz    (333 m%)
    noise: freq = 251.2 mHz     (14 %), step = 18.56 mHz    (333 m%)
    noise: freq = 271.2 mHz   (14.3 %), step = 20.04 mHz    (333 m%)
    noise: freq = 292.9 mHz   (14.7 %), step = 21.64 mHz    (333 m%)
    noise: freq = 316.2 mHz     (15 %), step = 23.36 mHz    (333 m%)
    noise: freq = 341.5 mHz   (15.3 %), step = 25.23 mHz    (333 m%)
    noise: freq = 368.7 mHz   (15.7 %), step = 27.24 mHz    (333 m%)
    noise: freq = 398.1 mHz     (16 %), step = 29.41 mHz    (333 m%)
    noise: freq = 429.9 mHz   (16.3 %), step = 31.76 mHz    (333 m%)
    noise: freq = 464.2 mHz   (16.7 %), step = 34.29 mHz    (333 m%)
    noise: freq = 501.2 mHz     (17 %), step = 37.03 mHz    (333 m%)
    noise: freq = 541.2 mHz   (17.3 %), step = 39.98 mHz    (333 m%)
    noise: freq = 584.3 mHz   (17.7 %), step = 43.17 mHz    (333 m%)
    noise: freq = 631 mHz       (18 %), step = 46.62 mHz    (333 m%)
    noise: freq = 681.3 mHz   (18.3 %), step = 50.33 mHz    (333 m%)
    noise: freq = 735.6 mHz   (18.7 %), step = 54.35 mHz    (333 m%)
    noise: freq = 794.3 mHz     (19 %), step = 58.69 mHz    (333 m%)
    noise: freq = 857.7 mHz   (19.3 %), step = 63.37 mHz    (333 m%)
    noise: freq = 926.1 mHz   (19.7 %), step = 68.42 mHz    (333 m%)
    noise: freq = 1 Hz          (20 %), step = 73.88 mHz    (333 m%)
    noise: freq = 1.08 Hz     (20.3 %), step = 79.78 mHz    (333 m%)
    noise: freq = 1.166 Hz    (20.7 %), step = 86.14 mHz    (333 m%)
    noise: freq = 1.259 Hz      (21 %), step = 93.01 mHz    (333 m%)
    noise: freq = 1.359 Hz    (21.3 %), step = 100.4 mHz    (333 m%)
    noise: freq = 1.468 Hz    (21.7 %), step = 108.4 mHz    (333 m%)
    noise: freq = 1.585 Hz      (22 %), step = 117.1 mHz    (333 m%)
    noise: freq = 1.711 Hz    (22.3 %), step = 126.4 mHz    (333 m%)
    noise: freq = 1.848 Hz    (22.7 %), step = 136.5 mHz    (333 m%)
    noise: freq = 1.995 Hz      (23 %), step = 147.4 mHz    (333 m%)
    noise: freq = 2.154 Hz    (23.3 %), step = 159.2 mHz    (333 m%)
    noise: freq = 2.326 Hz    (23.7 %), step = 171.9 mHz    (333 m%)
    noise: freq = 2.512 Hz      (24 %), step = 185.6 mHz    (333 m%)
    noise: freq = 2.712 Hz    (24.3 %), step = 200.4 mHz    (333 m%)
    noise: freq = 2.929 Hz    (24.7 %), step = 216.4 mHz    (333 m%)
    noise: freq = 3.162 Hz      (25 %), step = 233.6 mHz    (333 m%)
    noise: freq = 3.415 Hz    (25.3 %), step = 252.3 mHz    (333 m%)
    noise: freq = 3.687 Hz    (25.7 %), step = 272.4 mHz    (333 m%)
    noise: freq = 3.981 Hz      (26 %), step = 294.1 mHz    (333 m%)
    noise: freq = 4.299 Hz    (26.3 %), step = 317.6 mHz    (333 m%)
    noise: freq = 4.642 Hz    (26.7 %), step = 342.9 mHz    (333 m%)
    noise: freq = 5.012 Hz      (27 %), step = 370.3 mHz    (333 m%)
    noise: freq = 5.412 Hz    (27.3 %), step = 399.8 mHz    (333 m%)
    noise: freq = 5.843 Hz    (27.7 %), step = 431.7 mHz    (333 m%)
    noise: freq = 6.31 Hz       (28 %), step = 466.2 mHz    (333 m%)
    noise: freq = 6.813 Hz    (28.3 %), step = 503.3 mHz    (333 m%)
    noise: freq = 7.356 Hz    (28.7 %), step = 543.5 mHz    (333 m%)
    noise: freq = 7.943 Hz      (29 %), step = 586.9 mHz    (333 m%)
    noise: freq = 8.577 Hz    (29.3 %), step = 633.7 mHz    (333 m%)
    noise: freq = 9.261 Hz    (29.7 %), step = 684.2 mHz    (333 m%)
    noise: freq = 10 Hz         (30 %), step = 738.8 mHz    (333 m%)
    noise: freq = 10.8 Hz     (30.3 %), step = 797.8 mHz    (333 m%)
    noise: freq = 11.66 Hz    (30.7 %), step = 861.4 mHz    (333 m%)
    noise: freq = 12.59 Hz      (31 %), step = 930.1 mHz    (333 m%)
    noise: freq = 13.59 Hz    (31.3 %), step = 1.004 Hz     (333 m%)
    noise: freq = 14.68 Hz    (31.7 %), step = 1.084 Hz     (333 m%)
    noise: freq = 15.85 Hz      (32 %), step = 1.171 Hz     (333 m%)
    noise: freq = 17.11 Hz    (32.3 %), step = 1.264 Hz     (333 m%)
    noise: freq = 18.48 Hz    (32.7 %), step = 1.365 Hz     (333 m%)
    noise: freq = 19.95 Hz      (33 %), step = 1.474 Hz     (333 m%)
    noise: freq = 21.54 Hz    (33.3 %), step = 1.592 Hz     (333 m%)
    noise: freq = 23.26 Hz    (33.7 %), step = 1.719 Hz     (333 m%)
    noise: freq = 25.12 Hz      (34 %), step = 1.856 Hz     (333 m%)
    noise: freq = 27.12 Hz    (34.3 %), step = 2.004 Hz     (333 m%)
    noise: freq = 29.29 Hz    (34.7 %), step = 2.164 Hz     (333 m%)
    noise: freq = 31.62 Hz      (35 %), step = 2.336 Hz     (333 m%)
    noise: freq = 34.15 Hz    (35.3 %), step = 2.523 Hz     (333 m%)
    noise: freq = 36.87 Hz    (35.7 %), step = 2.724 Hz     (333 m%)
    noise: freq = 39.81 Hz      (36 %), step = 2.941 Hz     (333 m%)
    noise: freq = 42.99 Hz    (36.3 %), step = 3.176 Hz     (333 m%)
    noise: freq = 46.42 Hz    (36.7 %), step = 3.429 Hz     (333 m%)
    noise: freq = 50.12 Hz      (37 %), step = 3.703 Hz     (333 m%)
    noise: freq = 54.12 Hz    (37.3 %), step = 3.998 Hz     (333 m%)
    noise: freq = 58.43 Hz    (37.7 %), step = 4.317 Hz     (333 m%)
    noise: freq = 63.1 Hz       (38 %), step = 4.662 Hz     (333 m%)
    noise: freq = 68.13 Hz    (38.3 %), step = 5.033 Hz     (333 m%)
    noise: freq = 73.56 Hz    (38.7 %), step = 5.435 Hz     (333 m%)
    noise: freq = 79.43 Hz      (39 %), step = 5.869 Hz     (333 m%)
    noise: freq = 85.77 Hz    (39.3 %), step = 6.337 Hz     (333 m%)
    noise: freq = 92.61 Hz    (39.7 %), step = 6.842 Hz     (333 m%)
    noise: freq = 100 Hz        (40 %), step = 7.388 Hz     (333 m%)
    noise: freq = 108 Hz      (40.3 %), step = 7.978 Hz     (333 m%)
    noise: freq = 116.6 Hz    (40.7 %), step = 8.614 Hz     (333 m%)
    noise: freq = 125.9 Hz      (41 %), step = 9.301 Hz     (333 m%)
    noise: freq = 135.9 Hz    (41.3 %), step = 10.04 Hz     (333 m%)
    noise: freq = 146.8 Hz    (41.7 %), step = 10.84 Hz     (333 m%)
    noise: freq = 158.5 Hz      (42 %), step = 11.71 Hz     (333 m%)
    noise: freq = 171.1 Hz    (42.3 %), step = 12.64 Hz     (333 m%)
    noise: freq = 184.8 Hz    (42.7 %), step = 13.65 Hz     (333 m%)
    noise: freq = 199.5 Hz      (43 %), step = 14.74 Hz     (333 m%)
    noise: freq = 215.4 Hz    (43.3 %), step = 15.92 Hz     (333 m%)
    noise: freq = 232.6 Hz    (43.7 %), step = 17.19 Hz     (333 m%)
    noise: freq = 251.2 Hz      (44 %), step = 18.56 Hz     (333 m%)
    noise: freq = 271.2 Hz    (44.3 %), step = 20.04 Hz     (333 m%)
    noise: freq = 292.9 Hz    (44.7 %), step = 21.64 Hz     (333 m%)
    noise: freq = 316.2 Hz      (45 %), step = 23.36 Hz     (333 m%)
    noise: freq = 341.5 Hz    (45.3 %), step = 25.23 Hz     (333 m%)
    noise: freq = 368.7 Hz    (45.7 %), step = 27.24 Hz     (333 m%)
    noise: freq = 398.1 Hz      (46 %), step = 29.41 Hz     (333 m%)
    noise: freq = 429.9 Hz    (46.3 %), step = 31.76 Hz     (333 m%)
    noise: freq = 464.2 Hz    (46.7 %), step = 34.29 Hz     (333 m%)
    noise: freq = 501.2 Hz      (47 %), step = 37.03 Hz     (333 m%)
    noise: freq = 541.2 Hz    (47.3 %), step = 39.98 Hz     (333 m%)
    noise: freq = 584.3 Hz    (47.7 %), step = 43.17 Hz     (333 m%)
    noise: freq = 631 Hz        (48 %), step = 46.62 Hz     (333 m%)
    noise: freq = 681.3 Hz    (48.3 %), step = 50.33 Hz     (333 m%)
    noise: freq = 735.6 Hz    (48.7 %), step = 54.35 Hz     (333 m%)
    noise: freq = 794.3 Hz      (49 %), step = 58.69 Hz     (333 m%)
    noise: freq = 857.7 Hz    (49.3 %), step = 63.37 Hz     (333 m%)
    noise: freq = 926.1 Hz    (49.7 %), step = 68.42 Hz     (333 m%)
    noise: freq = 1 kHz         (50 %), step = 73.88 Hz     (333 m%)
    noise: freq = 1.08 kHz    (50.3 %), step = 79.78 Hz     (333 m%)
    noise: freq = 1.166 kHz   (50.7 %), step = 86.14 Hz     (333 m%)
    noise: freq = 1.259 kHz     (51 %), step = 93.01 Hz     (333 m%)
    noise: freq = 1.359 kHz   (51.3 %), step = 100.4 Hz     (333 m%)
    noise: freq = 1.468 kHz   (51.7 %), step = 108.4 Hz     (333 m%)
    noise: freq = 1.585 kHz     (52 %), step = 117.1 Hz     (333 m%)
    noise: freq = 1.711 kHz   (52.3 %), step = 126.4 Hz     (333 m%)
    noise: freq = 1.848 kHz   (52.7 %), step = 136.5 Hz     (333 m%)
    noise: freq = 1.995 kHz     (53 %), step = 147.4 Hz     (333 m%)
    noise: freq = 2.154 kHz   (53.3 %), step = 159.2 Hz     (333 m%)
    noise: freq = 2.326 kHz   (53.7 %), step = 171.9 Hz     (333 m%)
    noise: freq = 2.512 kHz     (54 %), step = 185.6 Hz     (333 m%)
    noise: freq = 2.712 kHz   (54.3 %), step = 200.4 Hz     (333 m%)
    noise: freq = 2.929 kHz   (54.7 %), step = 216.4 Hz     (333 m%)
    noise: freq = 3.162 kHz     (55 %), step = 233.6 Hz     (333 m%)
    noise: freq = 3.415 kHz   (55.3 %), step = 252.3 Hz     (333 m%)
    noise: freq = 3.687 kHz   (55.7 %), step = 272.4 Hz     (333 m%)
    noise: freq = 3.981 kHz     (56 %), step = 294.1 Hz     (333 m%)
    noise: freq = 4.299 kHz   (56.3 %), step = 317.6 Hz     (333 m%)
    noise: freq = 4.642 kHz   (56.7 %), step = 342.9 Hz     (333 m%)
    noise: freq = 5.012 kHz     (57 %), step = 370.3 Hz     (333 m%)
    noise: freq = 5.412 kHz   (57.3 %), step = 399.8 Hz     (333 m%)
    noise: freq = 5.843 kHz   (57.7 %), step = 431.7 Hz     (333 m%)
    noise: freq = 6.31 kHz      (58 %), step = 466.2 Hz     (333 m%)
    noise: freq = 6.813 kHz   (58.3 %), step = 503.3 Hz     (333 m%)
    noise: freq = 7.356 kHz   (58.7 %), step = 543.5 Hz     (333 m%)
    noise: freq = 7.943 kHz     (59 %), step = 586.9 Hz     (333 m%)
    noise: freq = 8.577 kHz   (59.3 %), step = 633.7 Hz     (333 m%)
    noise: freq = 9.261 kHz   (59.7 %), step = 684.2 Hz     (333 m%)
    noise: freq = 10 kHz        (60 %), step = 738.8 Hz     (333 m%)
    noise: freq = 10.8 kHz    (60.3 %), step = 797.8 Hz     (333 m%)
    noise: freq = 11.66 kHz   (60.7 %), step = 861.4 Hz     (333 m%)
    noise: freq = 12.59 kHz     (61 %), step = 930.1 Hz     (333 m%)
    noise: freq = 13.59 kHz   (61.3 %), step = 1.004 kHz    (333 m%)
    noise: freq = 14.68 kHz   (61.7 %), step = 1.084 kHz    (333 m%)
    noise: freq = 15.85 kHz     (62 %), step = 1.171 kHz    (333 m%)
    noise: freq = 17.11 kHz   (62.3 %), step = 1.264 kHz    (333 m%)
    noise: freq = 18.48 kHz   (62.7 %), step = 1.365 kHz    (333 m%)
    noise: freq = 19.95 kHz     (63 %), step = 1.474 kHz    (333 m%)
    noise: freq = 21.54 kHz   (63.3 %), step = 1.592 kHz    (333 m%)
    noise: freq = 23.26 kHz   (63.7 %), step = 1.719 kHz    (333 m%)
    noise: freq = 25.12 kHz     (64 %), step = 1.856 kHz    (333 m%)
    noise: freq = 27.12 kHz   (64.3 %), step = 2.004 kHz    (333 m%)
    noise: freq = 29.29 kHz   (64.7 %), step = 2.164 kHz    (333 m%)
    noise: freq = 31.62 kHz     (65 %), step = 2.336 kHz    (333 m%)
    noise: freq = 34.15 kHz   (65.3 %), step = 2.523 kHz    (333 m%)
    noise: freq = 36.87 kHz   (65.7 %), step = 2.724 kHz    (333 m%)
    noise: freq = 39.81 kHz     (66 %), step = 2.941 kHz    (333 m%)
    noise: freq = 42.99 kHz   (66.3 %), step = 3.176 kHz    (333 m%)
    noise: freq = 46.42 kHz   (66.7 %), step = 3.429 kHz    (333 m%)
    noise: freq = 50.12 kHz     (67 %), step = 3.703 kHz    (333 m%)
    noise: freq = 54.12 kHz   (67.3 %), step = 3.998 kHz    (333 m%)
    noise: freq = 58.43 kHz   (67.7 %), step = 4.317 kHz    (333 m%)
    noise: freq = 63.1 kHz      (68 %), step = 4.662 kHz    (333 m%)
    noise: freq = 68.13 kHz   (68.3 %), step = 5.033 kHz    (333 m%)
    noise: freq = 73.56 kHz   (68.7 %), step = 5.435 kHz    (333 m%)
    noise: freq = 79.43 kHz     (69 %), step = 5.869 kHz    (333 m%)
    noise: freq = 85.77 kHz   (69.3 %), step = 6.337 kHz    (333 m%)
    noise: freq = 92.61 kHz   (69.7 %), step = 6.842 kHz    (333 m%)
    noise: freq = 100 kHz       (70 %), step = 7.388 kHz    (333 m%)
    noise: freq = 108 kHz     (70.3 %), step = 7.978 kHz    (333 m%)
    noise: freq = 116.6 kHz   (70.7 %), step = 8.614 kHz    (333 m%)
    noise: freq = 125.9 kHz     (71 %), step = 9.301 kHz    (333 m%)
    noise: freq = 135.9 kHz   (71.3 %), step = 10.04 kHz    (333 m%)
    noise: freq = 146.8 kHz   (71.7 %), step = 10.84 kHz    (333 m%)
    noise: freq = 158.5 kHz     (72 %), step = 11.71 kHz    (333 m%)
    noise: freq = 171.1 kHz   (72.3 %), step = 12.64 kHz    (333 m%)
    noise: freq = 184.8 kHz   (72.7 %), step = 13.65 kHz    (333 m%)
    noise: freq = 199.5 kHz     (73 %), step = 14.74 kHz    (333 m%)
    noise: freq = 215.4 kHz   (73.3 %), step = 15.92 kHz    (333 m%)
    noise: freq = 232.6 kHz   (73.7 %), step = 17.19 kHz    (333 m%)
    noise: freq = 251.2 kHz     (74 %), step = 18.56 kHz    (333 m%)
    noise: freq = 271.2 kHz   (74.3 %), step = 20.04 kHz    (333 m%)
    noise: freq = 292.9 kHz   (74.7 %), step = 21.64 kHz    (333 m%)
    noise: freq = 316.2 kHz     (75 %), step = 23.36 kHz    (333 m%)
    noise: freq = 341.5 kHz   (75.3 %), step = 25.23 kHz    (333 m%)
    noise: freq = 368.7 kHz   (75.7 %), step = 27.24 kHz    (333 m%)
    noise: freq = 398.1 kHz     (76 %), step = 29.41 kHz    (333 m%)
    noise: freq = 429.9 kHz   (76.3 %), step = 31.76 kHz    (333 m%)
    noise: freq = 464.2 kHz   (76.7 %), step = 34.29 kHz    (333 m%)
    noise: freq = 501.2 kHz     (77 %), step = 37.03 kHz    (333 m%)
    noise: freq = 541.2 kHz   (77.3 %), step = 39.98 kHz    (333 m%)
    noise: freq = 584.3 kHz   (77.7 %), step = 43.17 kHz    (333 m%)
    noise: freq = 631 kHz       (78 %), step = 46.62 kHz    (333 m%)
    noise: freq = 681.3 kHz   (78.3 %), step = 50.33 kHz    (333 m%)
    noise: freq = 735.6 kHz   (78.7 %), step = 54.35 kHz    (333 m%)
    noise: freq = 794.3 kHz     (79 %), step = 58.69 kHz    (333 m%)
    noise: freq = 857.7 kHz   (79.3 %), step = 63.37 kHz    (333 m%)
    noise: freq = 926.1 kHz   (79.7 %), step = 68.42 kHz    (333 m%)
    noise: freq = 1 MHz         (80 %), step = 73.88 kHz    (333 m%)
    noise: freq = 1.08 MHz    (80.3 %), step = 79.78 kHz    (333 m%)
    noise: freq = 1.166 MHz   (80.7 %), step = 86.14 kHz    (333 m%)
    noise: freq = 1.259 MHz     (81 %), step = 93.01 kHz    (333 m%)
    noise: freq = 1.359 MHz   (81.3 %), step = 100.4 kHz    (333 m%)
    noise: freq = 1.468 MHz   (81.7 %), step = 108.4 kHz    (333 m%)
    noise: freq = 1.585 MHz     (82 %), step = 117.1 kHz    (333 m%)
    noise: freq = 1.711 MHz   (82.3 %), step = 126.4 kHz    (333 m%)
    noise: freq = 1.848 MHz   (82.7 %), step = 136.5 kHz    (333 m%)
    noise: freq = 1.995 MHz     (83 %), step = 147.4 kHz    (333 m%)
    noise: freq = 2.154 MHz   (83.3 %), step = 159.2 kHz    (333 m%)
    noise: freq = 2.326 MHz   (83.7 %), step = 171.9 kHz    (333 m%)
    noise: freq = 2.512 MHz     (84 %), step = 185.6 kHz    (333 m%)
    noise: freq = 2.712 MHz   (84.3 %), step = 200.4 kHz    (333 m%)
    noise: freq = 2.929 MHz   (84.7 %), step = 216.4 kHz    (333 m%)
    noise: freq = 3.162 MHz     (85 %), step = 233.6 kHz    (333 m%)
    noise: freq = 3.415 MHz   (85.3 %), step = 252.3 kHz    (333 m%)
    noise: freq = 3.687 MHz   (85.7 %), step = 272.4 kHz    (333 m%)
    noise: freq = 3.981 MHz     (86 %), step = 294.1 kHz    (333 m%)
    noise: freq = 4.299 MHz   (86.3 %), step = 317.6 kHz    (333 m%)
    noise: freq = 4.642 MHz   (86.7 %), step = 342.9 kHz    (333 m%)
    noise: freq = 5.012 MHz     (87 %), step = 370.3 kHz    (333 m%)
    noise: freq = 5.412 MHz   (87.3 %), step = 399.8 kHz    (333 m%)
    noise: freq = 5.843 MHz   (87.7 %), step = 431.7 kHz    (333 m%)
    noise: freq = 6.31 MHz      (88 %), step = 466.2 kHz    (333 m%)
    noise: freq = 6.813 MHz   (88.3 %), step = 503.3 kHz    (333 m%)
    noise: freq = 7.356 MHz   (88.7 %), step = 543.5 kHz    (333 m%)
    noise: freq = 7.943 MHz     (89 %), step = 586.9 kHz    (333 m%)
    noise: freq = 8.577 MHz   (89.3 %), step = 633.7 kHz    (333 m%)
    noise: freq = 9.261 MHz   (89.7 %), step = 684.2 kHz    (333 m%)
    noise: freq = 10 MHz        (90 %), step = 738.8 kHz    (333 m%)
    noise: freq = 10.8 MHz    (90.3 %), step = 797.8 kHz    (333 m%)
    noise: freq = 11.66 MHz   (90.7 %), step = 861.4 kHz    (333 m%)
    noise: freq = 12.59 MHz     (91 %), step = 930.1 kHz    (333 m%)
    noise: freq = 13.59 MHz   (91.3 %), step = 1.004 MHz    (333 m%)
    noise: freq = 14.68 MHz   (91.7 %), step = 1.084 MHz    (333 m%)
    noise: freq = 15.85 MHz     (92 %), step = 1.171 MHz    (333 m%)
    noise: freq = 17.11 MHz   (92.3 %), step = 1.264 MHz    (333 m%)
    noise: freq = 18.48 MHz   (92.7 %), step = 1.365 MHz    (333 m%)
    noise: freq = 19.95 MHz     (93 %), step = 1.474 MHz    (333 m%)
    noise: freq = 21.54 MHz   (93.3 %), step = 1.592 MHz    (333 m%)
    noise: freq = 23.26 MHz   (93.7 %), step = 1.719 MHz    (333 m%)
    noise: freq = 25.12 MHz     (94 %), step = 1.856 MHz    (333 m%)
    noise: freq = 27.12 MHz   (94.3 %), step = 2.004 MHz    (333 m%)
    noise: freq = 29.29 MHz   (94.7 %), step = 2.164 MHz    (333 m%)
    noise: freq = 31.62 MHz     (95 %), step = 2.336 MHz    (333 m%)
    noise: freq = 34.15 MHz   (95.3 %), step = 2.523 MHz    (333 m%)
    noise: freq = 36.87 MHz   (95.7 %), step = 2.724 MHz    (333 m%)
    noise: freq = 39.81 MHz     (96 %), step = 2.941 MHz    (333 m%)
    noise: freq = 42.99 MHz   (96.3 %), step = 3.176 MHz    (333 m%)
    noise: freq = 46.42 MHz   (96.7 %), step = 3.429 MHz    (333 m%)
    noise: freq = 50.12 MHz     (97 %), step = 3.703 MHz    (333 m%)
    noise: freq = 54.12 MHz   (97.3 %), step = 3.998 MHz    (333 m%)
    noise: freq = 58.43 MHz   (97.7 %), step = 4.317 MHz    (333 m%)
    noise: freq = 63.1 MHz      (98 %), step = 4.662 MHz    (333 m%)
    noise: freq = 68.13 MHz   (98.3 %), step = 5.033 MHz    (333 m%)
    noise: freq = 73.56 MHz   (98.7 %), step = 5.435 MHz    (333 m%)
    noise: freq = 79.43 MHz     (99 %), step = 5.869 MHz    (333 m%)
    noise: freq = 85.77 MHz   (99.3 %), step = 6.337 MHz    (333 m%)
    noise: freq = 92.61 MHz   (99.7 %), step = 6.842 MHz    (333 m%)
    noise: freq = 100 MHz      (100 %), step = 7.388 MHz    (333 m%)
Accumulated DC solution time =            48.1606 us.
Intrinsic noise analysis time =              77.343 ms.
Total time required for noise analysis `noise': CPU = 67.085 ms, elapsed = 77.625 ms, util. = 86.4%.
Time accumulated: CPU = 963.172 ms, elapsed = 3.39584 s.
Peak resident memory used = 222 Mbytes.

modelParameter: writing model parameter values to rawfile.

Opening the PSF file ../psf/nom/modelParameter.info ...
element: writing instance parameter values to rawfile.

Opening the PSF file ../psf/nom/element.info ...
outputParameter: writing output parameter values to rawfile.

Opening the PSF file ../psf/nom/outputParameter.info ...
designParamVals: writing netlist parameters to rawfile.

Opening the PSFASCII file ../psf/nom/designParamVals.info ...
primitives: writing primitives to rawfile.

Opening the PSFASCII file ../psf/nom/primitives.info.primitives ...
subckts: writing subcircuits to rawfile.

Opening the PSFASCII file ../psf/nom/subckts.info.subckts ...
Opening iteration number and data-directory mapping file:  /home/davidevi/Desktop/myproject/Sim/ECG_IA/ecg_vga_tb/adexl/results/data/MonteCarlo.3/1/MC/groupRunDataDir/netlist/../psf/mc1.mapping

Statistical parameters:
    Defined process parameters: 629
    Defined mismatch parameters (subckt based): 86
    Non-referenced mismatch parameters: 80
    Number of random variables: 712
    Gaussian truncation for process parameters: 4.00 sigma
    Gaussian truncation for mismatch parameters: 4.00 sigma


Opening the PSF file ../psf/mc1_dcOp.montecarlo ...

Opening the PSF file ../psf/mc1_dcOpInfo.montecarlo ...

Opening the PSF file ../psf/mc1_pz.montecarlo ...

Opening the PSF file ../psf/mc1_tran.montecarlo ...

Opening the PSF file ../psf/mc1_finalTimeOP.montecarlo ...

Opening the PSF file ../psf/mc1_ac.montecarlo ...

Opening the PSF file ../psf/mc1_noise.montecarlo ...

Opening the PSF file ../psf/mc1_modelParameter.montecarlo ...

Opening the PSF file ../psf/mc1_element.montecarlo ...

Opening the PSF file ../psf/mc1_outputParameter.montecarlo ...

Opening the PSF file ../psf/mc1_designParamVals.montecarlo ...

Opening the PSF file ../psf/mc1_primitives.montecarlo ...

Opening the PSF file ../psf/mc1_subckts.montecarlo ...

**** Performing monte carlo loop for `mc1'

1   0.00% 

*****************************************************************************************
* 
* INFO: AMS_processOption = C35B4C3
* 
* INFO: Valid Modules  PIP VG5 HIRES
* 
*****************************************************************************************


******************
DC Analysis `dcOp'
******************

Opening the PSF file ../psf/mc1_separate/001/dcOp.dc ...
Important parameter values:
    reltol = 100e-06
    abstol(V) = 1 uV
    abstol(I) = 1 pA
    temp = 27 C
    tnom = 27 C
    tempeffects = all
    gmindc = 1 pS
    rabsshort = 1 mOhm

Notice from spectre at iteration = 1 during DC analysis `dcOp', during Monte Carlo analysis `mc1'.
    Bad pivoting is found during DC analysis. Option dc_pivot_check=yes is recommended for possible improvement of convergence.


Maximum value achieved for any signal of each quantity: 
V: V(net2) = 3.3 V
I: I(V0:p) = 6.413 uA
Maximum value of each quantity, excluding Verilog-A modules or dangling current sources:
V: V(VOUT2) = 1.6 V
I: I(V0:p) = 6.413 uA

Warning from spectre at iteration = 1 during check, during DC analysis `dcOp', during Monte Carlo analysis `mc1'.
    WARNING (CMI-2943): Parameter checks have been ignored because the valid value for parameter 'trise' could not be found in 'C1'.
    WARNING (CMI-2943): Parameter checks have been ignored because the valid value for parameter 'trise' could not be found in 'I0.C9<2>.C1'.
    WARNING (CMI-2943): Parameter checks have been ignored because the valid value for parameter 'trise' could not be found in 'I0.C9<1>.C1'.
    WARNING (CMI-2943): Parameter checks have been ignored because the valid value for parameter 'trise' could not be found in 'I0.C9<0>.C1'.
    WARNING (CMI-2943): Parameter checks have been ignored because the valid value for parameter 'trise' could not be found in 'I0.C4.C1'.
        Further occurrences of this warning will be suppressed.

Convergence achieved in 19 iterations.
DC simulation time: CPU = 6.027 ms, elapsed = 7.19309 ms.
Total time required for dc analysis `dcOp': CPU = 7.362 ms, elapsed = 8.52704 ms, util. = 86.3%.
Time accumulated: CPU = 1.05156 s, elapsed = 3.50685 s.
Peak resident memory used = 225 Mbytes.


Notice from spectre at iteration = 1 during Monte Carlo analysis `mc1'.
    37 warnings suppressed.

dcOpInfo: writing operating point information to rawfile.

Opening the PSF file ../psf/mc1_separate/001/dcOpInfo.info ...

****************
PZ Analysis `pz'
****************

Warning from spectre at iteration = 1 during PZ analysis `pz', during Monte Carlo analysis `mc1'.
    WARNING: BSIM3v3 MOS Transistor - frequency dependent components are present in the circuit, approximated as AC equivalents at 1.000000e+00Hz for pz analysis.
Notice from spectre at iteration = 1 during DC analysis, during PZ analysis `pz', during Monte Carlo analysis `mc1'.
    Bad pivoting is found during DC analysis. Option dc_pivot_check=yes is recommended for possible improvement of convergence.
Warning from spectre at iteration = 1 during check, during DC analysis, during PZ analysis `pz', during Monte Carlo analysis `mc1'.
    WARNING (CMI-2943): Parameter checks have been ignored because the valid value for parameter 'trise' could not be found in 'C1'.
    WARNING (CMI-2943): Parameter checks have been ignored because the valid value for parameter 'trise' could not be found in 'I0.C9<2>.C1'.
    WARNING (CMI-2943): Parameter checks have been ignored because the valid value for parameter 'trise' could not be found in 'I0.C9<1>.C1'.
    WARNING (CMI-2943): Parameter checks have been ignored because the valid value for parameter 'trise' could not be found in 'I0.C9<0>.C1'.
    WARNING (CMI-2943): Parameter checks have been ignored because the valid value for parameter 'trise' could not be found in 'I0.C4.C1'.
        Further occurrences of this warning will be suppressed.

Convergence achieved in 19 iterations.
DC simulation time: CPU = 2.981 ms, elapsed = 2.98095 ms.

Opening the PSF file ../psf/mc1_separate/001/pz.pz ...
Convergence achieved in 2 iterations.
DC simulation time: CPU = 749 us, elapsed = 750.065 us.
                      Poles (Hz)

           Real                       Imaginary                 Qfactor

   1   -4.09157e-02                  0.00000e+00              5.00000e-01 
   2   -6.40545e+01                  0.00000e+00              5.00000e-01 
   3   -6.59076e+01                  0.00000e+00              5.00000e-01 
   4   -6.60594e+01                  0.00000e+00              5.00000e-01 
   5   -2.31003e+04                  0.00000e+00              5.00000e-01 
   6   -3.48300e+04                  0.00000e+00              5.00000e-01 
   7   -6.42311e+05                  0.00000e+00              5.00000e-01 
   8   -2.91282e+06                  0.00000e+00              5.00000e-01 
   9   -6.81252e+06              +/- 7.68350e+06              7.53665e-01 
  10   -5.18766e+07                  0.00000e+00              5.00000e-01 
  11   -1.10808e+08                  0.00000e+00              5.00000e-01 
  12   -2.31892e+08                  0.00000e+00              5.00000e-01 
  13   -3.03600e+08                  0.00000e+00              5.00000e-01 
  14   -1.45501e+11                  0.00000e+00              5.00000e-01 
  15   -2.70440e+11                  0.00000e+00              5.00000e-01 
  16   -8.14270e+11                  0.00000e+00              5.00000e-01 
  17   -9.40627e+11                  0.00000e+00              5.00000e-01 

                      Zeros (Hz)
                      at V(VOUT,0)/V2

           Real                       Imaginary                 Qfactor

   1   -2.53509e-03                  0.00000e+00              5.00000e-01 
   2   -6.40318e+01                  0.00000e+00              5.00000e-01 
   3   -6.57905e+01                  0.00000e+00              5.00000e-01 
   4   -6.62334e+01                  0.00000e+00              5.00000e-01 
   5   -2.30085e+04                  0.00000e+00              5.00000e-01 
   6   -6.44661e+05                  0.00000e+00              5.00000e-01 
   7   -1.42118e+06                  0.00000e+00              5.00000e-01 
   8   -2.34513e+06                  0.00000e+00              5.00000e-01 
   9   -5.05163e+07                  0.00000e+00              5.00000e-01 
  10    5.35502e+07              +/- 2.12017e+07              -5.37763e-01
  11   -9.77487e+07                  0.00000e+00              5.00000e-01 
  12   -1.62452e+08                  0.00000e+00              5.00000e-01 
  13   -2.35468e+08                  0.00000e+00              5.00000e-01 
  14   -1.45430e+11                  0.00000e+00              5.00000e-01 
  15   -2.69885e+11                  0.00000e+00              5.00000e-01 
  16   -9.65551e+11              +/- 4.06852e+09              5.00004e-01 

Constant factor =  2.73475e-02

DC gain =  9.92448e-01


Warning from spectre at 0 during PZ analysis `pz', during Monte Carlo analysis `mc1'.
    WARNING (UWI-8101): The specified waveform format 'psf' (improper context for requested action) could not be added. The simulator will ignore the waveform. Check the application programming interface (API) before running the simulation again.
    WARNING (UWI-8101): The specified waveform format 'psf' (improper context for requested action) could not be added. The simulator will ignore the waveform. Check the application programming interface (API) before running the simulation again.
    WARNING (UWI-8101): The specified waveform format 'psf' (improper context for requested action) could not be added. The simulator will ignore the waveform. Check the application programming interface (API) before running the simulation again.
    WARNING (UWI-8101): The specified waveform format 'psf' (improper context for requested action) could not be added. The simulator will ignore the waveform. Check the application programming interface (API) before running the simulation again.
    WARNING (UWI-8101): The specified waveform format 'psf' (improper context for requested action) could not be added. The simulator will ignore the waveform. Check the application programming interface (API) before running the simulation again.
        Further occurrences of this warning will be suppressed.

Accumulated DC solution time =            3.79777 ms.
Intrinsic pz analysis time =              17.8032 ms.
[...]
    noise: freq = 199.5 mHz     (13 %), step = 14.74 mHz    (333 m%)
    noise: freq = 215.4 mHz   (13.3 %), step = 15.92 mHz    (333 m%)
    noise: freq = 232.6 mHz   (13.7 %), step = 17.19 mHz    (333 m%)
    noise: freq = 251.2 mHz     (14 %), step = 18.56 mHz    (333 m%)
    noise: freq = 271.2 mHz   (14.3 %), step = 20.04 mHz    (333 m%)
    noise: freq = 292.9 mHz   (14.7 %), step = 21.64 mHz    (333 m%)
    noise: freq = 316.2 mHz     (15 %), step = 23.36 mHz    (333 m%)
    noise: freq = 341.5 mHz   (15.3 %), step = 25.23 mHz    (333 m%)
    noise: freq = 368.7 mHz   (15.7 %), step = 27.24 mHz    (333 m%)
    noise: freq = 398.1 mHz     (16 %), step = 29.41 mHz    (333 m%)
    noise: freq = 429.9 mHz   (16.3 %), step = 31.76 mHz    (333 m%)
    noise: freq = 464.2 mHz   (16.7 %), step = 34.29 mHz    (333 m%)
    noise: freq = 501.2 mHz     (17 %), step = 37.03 mHz    (333 m%)
    noise: freq = 541.2 mHz   (17.3 %), step = 39.98 mHz    (333 m%)
    noise: freq = 584.3 mHz   (17.7 %), step = 43.17 mHz    (333 m%)
    noise: freq = 631 mHz       (18 %), step = 46.62 mHz    (333 m%)
    noise: freq = 681.3 mHz   (18.3 %), step = 50.33 mHz    (333 m%)
    noise: freq = 735.6 mHz   (18.7 %), step = 54.35 mHz    (333 m%)
    noise: freq = 794.3 mHz     (19 %), step = 58.69 mHz    (333 m%)
    noise: freq = 857.7 mHz   (19.3 %), step = 63.37 mHz    (333 m%)
    noise: freq = 926.1 mHz   (19.7 %), step = 68.42 mHz    (333 m%)
    noise: freq = 1 Hz          (20 %), step = 73.88 mHz    (333 m%)
    noise: freq = 1.08 Hz     (20.3 %), step = 79.78 mHz    (333 m%)
    noise: freq = 1.166 Hz    (20.7 %), step = 86.14 mHz    (333 m%)
    noise: freq = 1.259 Hz      (21 %), step = 93.01 mHz    (333 m%)
    noise: freq = 1.359 Hz    (21.3 %), step = 100.4 mHz    (333 m%)
    noise: freq = 1.468 Hz    (21.7 %), step = 108.4 mHz    (333 m%)
    noise: freq = 1.585 Hz      (22 %), step = 117.1 mHz    (333 m%)
    noise: freq = 1.711 Hz    (22.3 %), step = 126.4 mHz    (333 m%)
    noise: freq = 1.848 Hz    (22.7 %), step = 136.5 mHz    (333 m%)
    noise: freq = 1.995 Hz      (23 %), step = 147.4 mHz    (333 m%)
    noise: freq = 2.154 Hz    (23.3 %), step = 159.2 mHz    (333 m%)
    noise: freq = 2.326 Hz    (23.7 %), step = 171.9 mHz    (333 m%)
    noise: freq = 2.512 Hz      (24 %), step = 185.6 mHz    (333 m%)
    noise: freq = 2.712 Hz    (24.3 %), step = 200.4 mHz    (333 m%)
    noise: freq = 2.929 Hz    (24.7 %), step = 216.4 mHz    (333 m%)
    noise: freq = 3.162 Hz      (25 %), step = 233.6 mHz    (333 m%)
    noise: freq = 3.415 Hz    (25.3 %), step = 252.3 mHz    (333 m%)
    noise: freq = 3.687 Hz    (25.7 %), step = 272.4 mHz    (333 m%)
    noise: freq = 3.981 Hz      (26 %), step = 294.1 mHz    (333 m%)
    noise: freq = 4.299 Hz    (26.3 %), step = 317.6 mHz    (333 m%)
    noise: freq = 4.642 Hz    (26.7 %), step = 342.9 mHz    (333 m%)
    noise: freq = 5.012 Hz      (27 %), step = 370.3 mHz    (333 m%)
    noise: freq = 5.412 Hz    (27.3 %), step = 399.8 mHz    (333 m%)
    noise: freq = 5.843 Hz    (27.7 %), step = 431.7 mHz    (333 m%)
    noise: freq = 6.31 Hz       (28 %), step = 466.2 mHz    (333 m%)
    noise: freq = 6.813 Hz    (28.3 %), step = 503.3 mHz    (333 m%)
    noise: freq = 7.356 Hz    (28.7 %), step = 543.5 mHz    (333 m%)
    noise: freq = 7.943 Hz      (29 %), step = 586.9 mHz    (333 m%)
    noise: freq = 8.577 Hz    (29.3 %), step = 633.7 mHz    (333 m%)
    noise: freq = 9.261 Hz    (29.7 %), step = 684.2 mHz    (333 m%)
    noise: freq = 10 Hz         (30 %), step = 738.8 mHz    (333 m%)
    noise: freq = 10.8 Hz     (30.3 %), step = 797.8 mHz    (333 m%)
    noise: freq = 11.66 Hz    (30.7 %), step = 861.4 mHz    (333 m%)
    noise: freq = 12.59 Hz      (31 %), step = 930.1 mHz    (333 m%)
    noise: freq = 13.59 Hz    (31.3 %), step = 1.004 Hz     (333 m%)
    noise: freq = 14.68 Hz    (31.7 %), step = 1.084 Hz     (333 m%)
    noise: freq = 15.85 Hz      (32 %), step = 1.171 Hz     (333 m%)
    noise: freq = 17.11 Hz    (32.3 %), step = 1.264 Hz     (333 m%)
    noise: freq = 18.48 Hz    (32.7 %), step = 1.365 Hz     (333 m%)
    noise: freq = 19.95 Hz      (33 %), step = 1.474 Hz     (333 m%)
    noise: freq = 21.54 Hz    (33.3 %), step = 1.592 Hz     (333 m%)
    noise: freq = 23.26 Hz    (33.7 %), step = 1.719 Hz     (333 m%)
    noise: freq = 25.12 Hz      (34 %), step = 1.856 Hz     (333 m%)
    noise: freq = 27.12 Hz    (34.3 %), step = 2.004 Hz     (333 m%)
    noise: freq = 29.29 Hz    (34.7 %), step = 2.164 Hz     (333 m%)
    noise: freq = 31.62 Hz      (35 %), step = 2.336 Hz     (333 m%)
    noise: freq = 34.15 Hz    (35.3 %), step = 2.523 Hz     (333 m%)
    noise: freq = 36.87 Hz    (35.7 %), step = 2.724 Hz     (333 m%)
    noise: freq = 39.81 Hz      (36 %), step = 2.941 Hz     (333 m%)
    noise: freq = 42.99 Hz    (36.3 %), step = 3.176 Hz     (333 m%)
    noise: freq = 46.42 Hz    (36.7 %), step = 3.429 Hz     (333 m%)
    noise: freq = 50.12 Hz      (37 %), step = 3.703 Hz     (333 m%)
    noise: freq = 54.12 Hz    (37.3 %), step = 3.998 Hz     (333 m%)
    noise: freq = 58.43 Hz    (37.7 %), step = 4.317 Hz     (333 m%)
    noise: freq = 63.1 Hz       (38 %), step = 4.662 Hz     (333 m%)
    noise: freq = 68.13 Hz    (38.3 %), step = 5.033 Hz     (333 m%)
    noise: freq = 73.56 Hz    (38.7 %), step = 5.435 Hz     (333 m%)
    noise: freq = 79.43 Hz      (39 %), step = 5.869 Hz     (333 m%)
    noise: freq = 85.77 Hz    (39.3 %), step = 6.337 Hz     (333 m%)
    noise: freq = 92.61 Hz    (39.7 %), step = 6.842 Hz     (333 m%)
    noise: freq = 100 Hz        (40 %), step = 7.388 Hz     (333 m%)
    noise: freq = 108 Hz      (40.3 %), step = 7.978 Hz     (333 m%)
    noise: freq = 116.6 Hz    (40.7 %), step = 8.614 Hz     (333 m%)
    noise: freq = 125.9 Hz      (41 %), step = 9.301 Hz     (333 m%)
    noise: freq = 135.9 Hz    (41.3 %), step = 10.04 Hz     (333 m%)
    noise: freq = 146.8 Hz    (41.7 %), step = 10.84 Hz     (333 m%)
    noise: freq = 158.5 Hz      (42 %), step = 11.71 Hz     (333 m%)
    noise: freq = 171.1 Hz    (42.3 %), step = 12.64 Hz     (333 m%)
    noise: freq = 184.8 Hz    (42.7 %), step = 13.65 Hz     (333 m%)
    noise: freq = 199.5 Hz      (43 %), step = 14.74 Hz     (333 m%)
    noise: freq = 215.4 Hz    (43.3 %), step = 15.92 Hz     (333 m%)
    noise: freq = 232.6 Hz    (43.7 %), step = 17.19 Hz     (333 m%)
    noise: freq = 251.2 Hz      (44 %), step = 18.56 Hz     (333 m%)
    noise: freq = 271.2 Hz    (44.3 %), step = 20.04 Hz     (333 m%)
    noise: freq = 292.9 Hz    (44.7 %), step = 21.64 Hz     (333 m%)
    noise: freq = 316.2 Hz      (45 %), step = 23.36 Hz     (333 m%)
    noise: freq = 341.5 Hz    (45.3 %), step = 25.23 Hz     (333 m%)
    noise: freq = 368.7 Hz    (45.7 %), step = 27.24 Hz     (333 m%)
    noise: freq = 398.1 Hz      (46 %), step = 29.41 Hz     (333 m%)
    noise: freq = 429.9 Hz    (46.3 %), step = 31.76 Hz     (333 m%)
    noise: freq = 464.2 Hz    (46.7 %), step = 34.29 Hz     (333 m%)
    noise: freq = 501.2 Hz      (47 %), step = 37.03 Hz     (333 m%)
    noise: freq = 541.2 Hz    (47.3 %), step = 39.98 Hz     (333 m%)
    noise: freq = 584.3 Hz    (47.7 %), step = 43.17 Hz     (333 m%)
    noise: freq = 631 Hz        (48 %), step = 46.62 Hz     (333 m%)
    noise: freq = 681.3 Hz    (48.3 %), step = 50.33 Hz     (333 m%)
    noise: freq = 735.6 Hz    (48.7 %), step = 54.35 Hz     (333 m%)
    noise: freq = 794.3 Hz      (49 %), step = 58.69 Hz     (333 m%)
    noise: freq = 857.7 Hz    (49.3 %), step = 63.37 Hz     (333 m%)
    noise: freq = 926.1 Hz    (49.7 %), step = 68.42 Hz     (333 m%)
    noise: freq = 1 kHz         (50 %), step = 73.88 Hz     (333 m%)
    noise: freq = 1.08 kHz    (50.3 %), step = 79.78 Hz     (333 m%)
    noise: freq = 1.166 kHz   (50.7 %), step = 86.14 Hz     (333 m%)
    noise: freq = 1.259 kHz     (51 %), step = 93.01 Hz     (333 m%)
    noise: freq = 1.359 kHz   (51.3 %), step = 100.4 Hz     (333 m%)
    noise: freq = 1.468 kHz   (51.7 %), step = 108.4 Hz     (333 m%)
    noise: freq = 1.585 kHz     (52 %), step = 117.1 Hz     (333 m%)
    noise: freq = 1.711 kHz   (52.3 %), step = 126.4 Hz     (333 m%)
    noise: freq = 1.848 kHz   (52.7 %), step = 136.5 Hz     (333 m%)
    noise: freq = 1.995 kHz     (53 %), step = 147.4 Hz     (333 m%)
    noise: freq = 2.154 kHz   (53.3 %), step = 159.2 Hz     (333 m%)
    noise: freq = 2.326 kHz   (53.7 %), step = 171.9 Hz     (333 m%)
    noise: freq = 2.512 kHz     (54 %), step = 185.6 Hz     (333 m%)
    noise: freq = 2.712 kHz   (54.3 %), step = 200.4 Hz     (333 m%)
    noise: freq = 2.929 kHz   (54.7 %), step = 216.4 Hz     (333 m%)
    noise: freq = 3.162 kHz     (55 %), step = 233.6 Hz     (333 m%)
    noise: freq = 3.415 kHz   (55.3 %), step = 252.3 Hz     (333 m%)
    noise: freq = 3.687 kHz   (55.7 %), step = 272.4 Hz     (333 m%)
    noise: freq = 3.981 kHz     (56 %), step = 294.1 Hz     (333 m%)
    noise: freq = 4.299 kHz   (56.3 %), step = 317.6 Hz     (333 m%)
    noise: freq = 4.642 kHz   (56.7 %), step = 342.9 Hz     (333 m%)
    noise: freq = 5.012 kHz     (57 %), step = 370.3 Hz     (333 m%)
    noise: freq = 5.412 kHz   (57.3 %), step = 399.8 Hz     (333 m%)
    noise: freq = 5.843 kHz   (57.7 %), step = 431.7 Hz     (333 m%)
    noise: freq = 6.31 kHz      (58 %), step = 466.2 Hz     (333 m%)
    noise: freq = 6.813 kHz   (58.3 %), step = 503.3 Hz     (333 m%)
    noise: freq = 7.356 kHz   (58.7 %), step = 543.5 Hz     (333 m%)
    noise: freq = 7.943 kHz     (59 %), step = 586.9 Hz     (333 m%)
    noise: freq = 8.577 kHz   (59.3 %), step = 633.7 Hz     (333 m%)
    noise: freq = 9.261 kHz   (59.7 %), step = 684.2 Hz     (333 m%)
    noise: freq = 10 kHz        (60 %), step = 738.8 Hz     (333 m%)
    noise: freq = 10.8 kHz    (60.3 %), step = 797.8 Hz     (333 m%)
    noise: freq = 11.66 kHz   (60.7 %), step = 861.4 Hz     (333 m%)
    noise: freq = 12.59 kHz     (61 %), step = 930.1 Hz     (333 m%)
    noise: freq = 13.59 kHz   (61.3 %), step = 1.004 kHz    (333 m%)
    noise: freq = 14.68 kHz   (61.7 %), step = 1.084 kHz    (333 m%)
    noise: freq = 15.85 kHz     (62 %), step = 1.171 kHz    (333 m%)
    noise: freq = 17.11 kHz   (62.3 %), step = 1.264 kHz    (333 m%)
    noise: freq = 18.48 kHz   (62.7 %), step = 1.365 kHz    (333 m%)
    noise: freq = 19.95 kHz     (63 %), step = 1.474 kHz    (333 m%)
    noise: freq = 21.54 kHz   (63.3 %), step = 1.592 kHz    (333 m%)
    noise: freq = 23.26 kHz   (63.7 %), step = 1.719 kHz    (333 m%)
    noise: freq = 25.12 kHz     (64 %), step = 1.856 kHz    (333 m%)
    noise: freq = 27.12 kHz   (64.3 %), step = 2.004 kHz    (333 m%)
    noise: freq = 29.29 kHz   (64.7 %), step = 2.164 kHz    (333 m%)
    noise: freq = 31.62 kHz     (65 %), step = 2.336 kHz    (333 m%)
    noise: freq = 34.15 kHz   (65.3 %), step = 2.523 kHz    (333 m%)
    noise: freq = 36.87 kHz   (65.7 %), step = 2.724 kHz    (333 m%)
    noise: freq = 39.81 kHz     (66 %), step = 2.941 kHz    (333 m%)
    noise: freq = 42.99 kHz   (66.3 %), step = 3.176 kHz    (333 m%)
    noise: freq = 46.42 kHz   (66.7 %), step = 3.429 kHz    (333 m%)
    noise: freq = 50.12 kHz     (67 %), step = 3.703 kHz    (333 m%)
    noise: freq = 54.12 kHz   (67.3 %), step = 3.998 kHz    (333 m%)
    noise: freq = 58.43 kHz   (67.7 %), step = 4.317 kHz    (333 m%)
    noise: freq = 63.1 kHz      (68 %), step = 4.662 kHz    (333 m%)
    noise: freq = 68.13 kHz   (68.3 %), step = 5.033 kHz    (333 m%)
    noise: freq = 73.56 kHz   (68.7 %), step = 5.435 kHz    (333 m%)
    noise: freq = 79.43 kHz     (69 %), step = 5.869 kHz    (333 m%)
    noise: freq = 85.77 kHz   (69.3 %), step = 6.337 kHz    (333 m%)
    noise: freq = 92.61 kHz   (69.7 %), step = 6.842 kHz    (333 m%)
    noise: freq = 100 kHz       (70 %), step = 7.388 kHz    (333 m%)
    noise: freq = 108 kHz     (70.3 %), step = 7.978 kHz    (333 m%)
    noise: freq = 116.6 kHz   (70.7 %), step = 8.614 kHz    (333 m%)
    noise: freq = 125.9 kHz     (71 %), step = 9.301 kHz    (333 m%)
    noise: freq = 135.9 kHz   (71.3 %), step = 10.04 kHz    (333 m%)
    noise: freq = 146.8 kHz   (71.7 %), step = 10.84 kHz    (333 m%)
    noise: freq = 158.5 kHz     (72 %), step = 11.71 kHz    (333 m%)
    noise: freq = 171.1 kHz   (72.3 %), step = 12.64 kHz    (333 m%)
    noise: freq = 184.8 kHz   (72.7 %), step = 13.65 kHz    (333 m%)
    noise: freq = 199.5 kHz     (73 %), step = 14.74 kHz    (333 m%)
    noise: freq = 215.4 kHz   (73.3 %), step = 15.92 kHz    (333 m%)
    noise: freq = 232.6 kHz   (73.7 %), step = 17.19 kHz    (333 m%)
    noise: freq = 251.2 kHz     (74 %), step = 18.56 kHz    (333 m%)
    noise: freq = 271.2 kHz   (74.3 %), step = 20.04 kHz    (333 m%)
    noise: freq = 292.9 kHz   (74.7 %), step = 21.64 kHz    (333 m%)
    noise: freq = 316.2 kHz     (75 %), step = 23.36 kHz    (333 m%)
    noise: freq = 341.5 kHz   (75.3 %), step = 25.23 kHz    (333 m%)
    noise: freq = 368.7 kHz   (75.7 %), step = 27.24 kHz    (333 m%)
    noise: freq = 398.1 kHz     (76 %), step = 29.41 kHz    (333 m%)
    noise: freq = 429.9 kHz   (76.3 %), step = 31.76 kHz    (333 m%)
    noise: freq = 464.2 kHz   (76.7 %), step = 34.29 kHz    (333 m%)
    noise: freq = 501.2 kHz     (77 %), step = 37.03 kHz    (333 m%)
    noise: freq = 541.2 kHz   (77.3 %), step = 39.98 kHz    (333 m%)
    noise: freq = 584.3 kHz   (77.7 %), step = 43.17 kHz    (333 m%)
    noise: freq = 631 kHz       (78 %), step = 46.62 kHz    (333 m%)
    noise: freq = 681.3 kHz   (78.3 %), step = 50.33 kHz    (333 m%)
    noise: freq = 735.6 kHz   (78.7 %), step = 54.35 kHz    (333 m%)
    noise: freq = 794.3 kHz     (79 %), step = 58.69 kHz    (333 m%)
    noise: freq = 857.7 kHz   (79.3 %), step = 63.37 kHz    (333 m%)
    noise: freq = 926.1 kHz   (79.7 %), step = 68.42 kHz    (333 m%)
    noise: freq = 1 MHz         (80 %), step = 73.88 kHz    (333 m%)
    noise: freq = 1.08 MHz    (80.3 %), step = 79.78 kHz    (333 m%)
    noise: freq = 1.166 MHz   (80.7 %), step = 86.14 kHz    (333 m%)
    noise: freq = 1.259 MHz     (81 %), step = 93.01 kHz    (333 m%)
    noise: freq = 1.359 MHz   (81.3 %), step = 100.4 kHz    (333 m%)
    noise: freq = 1.468 MHz   (81.7 %), step = 108.4 kHz    (333 m%)
    noise: freq = 1.585 MHz     (82 %), step = 117.1 kHz    (333 m%)
    noise: freq = 1.711 MHz   (82.3 %), step = 126.4 kHz    (333 m%)
    noise: freq = 1.848 MHz   (82.7 %), step = 136.5 kHz    (333 m%)
    noise: freq = 1.995 MHz     (83 %), step = 147.4 kHz    (333 m%)
    noise: freq = 2.154 MHz   (83.3 %), step = 159.2 kHz    (333 m%)
    noise: freq = 2.326 MHz   (83.7 %), step = 171.9 kHz    (333 m%)
    noise: freq = 2.512 MHz     (84 %), step = 185.6 kHz    (333 m%)
    noise: freq = 2.712 MHz   (84.3 %), step = 200.4 kHz    (333 m%)
    noise: freq = 2.929 MHz   (84.7 %), step = 216.4 kHz    (333 m%)
    noise: freq = 3.162 MHz     (85 %), step = 233.6 kHz    (333 m%)
    noise: freq = 3.415 MHz   (85.3 %), step = 252.3 kHz    (333 m%)
    noise: freq = 3.687 MHz   (85.7 %), step = 272.4 kHz    (333 m%)
    noise: freq = 3.981 MHz     (86 %), step = 294.1 kHz    (333 m%)
    noise: freq = 4.299 MHz   (86.3 %), step = 317.6 kHz    (333 m%)
    noise: freq = 4.642 MHz   (86.7 %), step = 342.9 kHz    (333 m%)
    noise: freq = 5.012 MHz     (87 %), step = 370.3 kHz    (333 m%)
    noise: freq = 5.412 MHz   (87.3 %), step = 399.8 kHz    (333 m%)
    noise: freq = 5.843 MHz   (87.7 %), step = 431.7 kHz    (333 m%)
    noise: freq = 6.31 MHz      (88 %), step = 466.2 kHz    (333 m%)
    noise: freq = 6.813 MHz   (88.3 %), step = 503.3 kHz    (333 m%)
    noise: freq = 7.356 MHz   (88.7 %), step = 543.5 kHz    (333 m%)
    noise: freq = 7.943 MHz     (89 %), step = 586.9 kHz    (333 m%)
    noise: freq = 8.577 MHz   (89.3 %), step = 633.7 kHz    (333 m%)
    noise: freq = 9.261 MHz   (89.7 %), step = 684.2 kHz    (333 m%)
    noise: freq = 10 MHz        (90 %), step = 738.8 kHz    (333 m%)
    noise: freq = 10.8 MHz    (90.3 %), step = 797.8 kHz    (333 m%)
    noise: freq = 11.66 MHz   (90.7 %), step = 861.4 kHz    (333 m%)
    noise: freq = 12.59 MHz     (91 %), step = 930.1 kHz    (333 m%)
    noise: freq = 13.59 MHz   (91.3 %), step = 1.004 MHz    (333 m%)
    noise: freq = 14.68 MHz   (91.7 %), step = 1.084 MHz    (333 m%)
    noise: freq = 15.85 MHz     (92 %), step = 1.171 MHz    (333 m%)
    noise: freq = 17.11 MHz   (92.3 %), step = 1.264 MHz    (333 m%)
    noise: freq = 18.48 MHz   (92.7 %), step = 1.365 MHz    (333 m%)
    noise: freq = 19.95 MHz     (93 %), step = 1.474 MHz    (333 m%)
    noise: freq = 21.54 MHz   (93.3 %), step = 1.592 MHz    (333 m%)
    noise: freq = 23.26 MHz   (93.7 %), step = 1.719 MHz    (333 m%)
    noise: freq = 25.12 MHz     (94 %), step = 1.856 MHz    (333 m%)
    noise: freq = 27.12 MHz   (94.3 %), step = 2.004 MHz    (333 m%)
    noise: freq = 29.29 MHz   (94.7 %), step = 2.164 MHz    (333 m%)
    noise: freq = 31.62 MHz     (95 %), step = 2.336 MHz    (333 m%)
    noise: freq = 34.15 MHz   (95.3 %), step = 2.523 MHz    (333 m%)
    noise: freq = 36.87 MHz   (95.7 %), step = 2.724 MHz    (333 m%)
    noise: freq = 39.81 MHz     (96 %), step = 2.941 MHz    (333 m%)
    noise: freq = 42.99 MHz   (96.3 %), step = 3.176 MHz    (333 m%)
    noise: freq = 46.42 MHz   (96.7 %), step = 3.429 MHz    (333 m%)
    noise: freq = 50.12 MHz     (97 %), step = 3.703 MHz    (333 m%)
    noise: freq = 54.12 MHz   (97.3 %), step = 3.998 MHz    (333 m%)
    noise: freq = 58.43 MHz   (97.7 %), step = 4.317 MHz    (333 m%)
    noise: freq = 63.1 MHz      (98 %), step = 4.662 MHz    (333 m%)
    noise: freq = 68.13 MHz   (98.3 %), step = 5.033 MHz    (333 m%)
    noise: freq = 73.56 MHz   (98.7 %), step = 5.435 MHz    (333 m%)
    noise: freq = 79.43 MHz     (99 %), step = 5.869 MHz    (333 m%)
    noise: freq = 85.77 MHz   (99.3 %), step = 6.337 MHz    (333 m%)
    noise: freq = 92.61 MHz   (99.7 %), step = 6.842 MHz    (333 m%)
    noise: freq = 100 MHz      (100 %), step = 7.388 MHz    (333 m%)
Accumulated DC solution time =            40.0543 us.
Intrinsic noise analysis time =              80.097 ms.
Total time required for noise analysis `noise': CPU = 69.613 ms, elapsed = 80.4071 ms, util. = 86.6%.
Time accumulated: CPU = 5.06394 s, elapsed = 7.90934 s.
Peak resident memory used = 226 Mbytes.

modelParameter: writing model parameter values to rawfile.

Opening the PSF file ../psf/mc1_separate/013/modelParameter.info ...
element: writing instance parameter values to rawfile.

Opening the PSF file ../psf/mc1_separate/013/element.info ...
outputParameter: writing output parameter values to rawfile.

Opening the PSF file ../psf/mc1_separate/013/outputParameter.info ...
designParamVals: writing netlist parameters to rawfile.

Opening the PSFASCII file ../psf/mc1_separate/013/designParamVals.info ...
primitives: writing primitives to rawfile.

Opening the PSFASCII file ../psf/mc1_separate/013/primitives.info.primitives ...
subckts: writing subcircuits to rawfile.

Opening the PSFASCII file ../psf/mc1_separate/013/subckts.info.subckts ...
    mc1: iteration = 13           (100 %), step = 1            (8.33 %)
Total time required for montecarlo analysis `mc1': CPU = 4.49629 s, elapsed = 4.94707 s, util. = 90.9%.
Time accumulated: CPU = 5.08553 s, elapsed = 7.94281 s.
Peak resident memory used = 226 Mbytes.

Licensing Information:
Lic Summary:
[10:58:17.367411] Cdslmd servers:3000@lic08.ug.kth.se:29000@lic06.ug.kth.se
[10:58:17.367457] Feature usage summary:
[10:58:17.367458] Virtuoso_Multi_mode_Simulation


Aggregate audit (10:58:17 AM, Mon Mar 23, 2026):
Time used: CPU = 5.1 s, elapsed = 7.96 s, util. = 64.1%.
Time spent in licensing: elapsed = 48 ms.
Peak memory used = 226 Mbytes.
Simulation started at: 10:58:09 AM, Mon Mar 23, 2026, ended at: 10:58:17 AM, Mon Mar 23, 2026, with elapsed time (wall clock): 7.96 s.
spectre completes with 0 errors, 384 warnings, and 177 notices.
