
Spectre (R) Circuit Simulator
Version 24.1.0.288.isr5 64bit -- 3 Apr 2025
Copyright (C) 1989-2025 Cadence Design Systems, Inc. All rights reserved worldwide. Cadence and Spectre are registered trademarks of Cadence Design Systems, Inc. All others are the property of their respective holders.

Includes RSA BSAFE(R) Cryptographic or Security Protocol Software from RSA Security, Inc.

User: davidevi   Host: il2244vt26_davidevi   HostID: 11AC2C00   PID: 1108451
Memory  available: 3.0420 TB  physical: 3.2467 TB
Linux   : Rocky Linux release 8.10 (Green Obsidian)
CPU Type: Intel(R) Xeon(R) CPU E7-8857 v2 @ 3.00GHz
        Socket: Processors [Frequency]
        0:       0 [2999.9],  1 [1200.0],  2 [1200.0],  3 [1200.0],  4 [1200.0]
                 5 [3600.0],  6 [2999.9],  7 [3200.0],  8 [2999.9],  9 [2900.0]
                10 [2700.0], 11 [2400.0]
        1:      12 [1200.0], 13 [3600.0], 14 [1200.0], 15 [2500.0], 16 [3600.0]
                17 [1200.0], 18 [3600.0], 19 [2999.9], 20 [2500.0], 21 [1200.0]
                22 [2960.6], 23 [2600.0]
        2:      24 [2999.9], 25 [2400.0], 26 [1200.0], 27 [3500.0], 28 [1200.0]
                29 [2999.9], 30 [1200.0], 31 [2500.0], 32 [1200.0], 33 [3200.0]
                34 [3600.0], 35 [3600.0]
        3:      36 [2600.0], 37 [2600.0], 38 [3500.0], 39 [3600.0], 40 [2999.9]
                41 [3000.0], 42 [3000.0], 43 [2800.0], 44 [3600.0], 45 [3600.0]
                46 [3600.0], 47 [2999.9]
        
System load averages (1min, 5min, 15min) : 17.9 %, 16.9 %, 17.7 %
HPC is enabled


Simulating `input.scs' on il2244vt26_davidevi at 10:45:58 AM, Thur Apr 16, 2026 (process id: 1108451).
Current working directory: /home/davidevi/Desktop/myproject/Sim/VGA/VGA_1_tb/adexl/results/data/MonteCarlo.4/14/Linerity_MC/groupRunDataDir/netlist
Command line:
    /opt/tools/cadence/installs/SPECTRE241/tools/bin/spectre -64  \
        input.scs +escchars +log ../psf/spectre.out -format psfbin  \
        +rtsf -raw ../psf +aps +mt +lqtimeout 900 -maxw 5 -maxn 5  \
        +param /opt/pdk/ams/410/spectre/ams_range.lmts -env ade  \
        -ahdllibdir  \
        /home/davidevi/Desktop/myproject/Sim/VGA/VGA_1_tb/adexl/results/data/MonteCarlo.4/sharedData/Job526/ahdl/input.ahdlSimDB  \
        +logstatus  \
        +adespetkn=0001089D13A302B663E41FB550AF0DF415A679A322D5069144BF588C12F604E07EF416DC01A319B562BB63D306D8409145A373F664D843B757CC6EC912ED4F926DF079D15D9175FF34986BDD0AF002BA50FD7FD707E002A700AC1C8612FC4CE10EAB79D129F874D3349879D118F874D334981031A51DC9365D780000366C

Simulation Id: 4BKDiscT7d1TNpYh
Licensing Information:
[10:45:58.121786] Configured Lic search path (24.01-s002): 3000@lic08.ug.kth.se:29000@lic06.ug.kth.se

Licensing Information:
[10:45:59.033787] Periodic Lic check successful

Loading /opt/tools/cadence/installs/SPECTRE241/tools.lnx86/cmi/lib/64bit/5.0/libinfineon_sh.so ...
Loading /opt/tools/cadence/installs/SPECTRE241/tools.lnx86/cmi/lib/64bit/5.0/libphilips_I_sh.so ...
Loading /opt/tools/cadence/installs/SPECTRE241/tools.lnx86/cmi/lib/64bit/5.0/libphilips_sh.so ...
Loading /opt/tools/cadence/installs/SPECTRE241/tools.lnx86/cmi/lib/64bit/5.0/libsparam_sh.so ...
Loading /opt/tools/cadence/installs/SPECTRE241/tools.lnx86/cmi/lib/64bit/5.0/libstmodels_sh.so ...

Warning from spectre.
    WARNING (SPECTRE-691): This CPU processor does not support x86 advanced vector extensions instructions. This may affect math operations and slow down the simulation.

Reading file:  /home/davidevi/Desktop/myproject/Sim/VGA/VGA_1_tb/adexl/results/data/MonteCarlo.4/14/Linerity_MC/groupRunDataDir/netlist/input.scs
Reading file:  /opt/pdk/ams/410/spectre/ams_range.lmts

Warning from spectre during read of parameter soft limits file `/opt/pdk/ams/410/spectre/ams_range.lmts', during circuit read-in.
    WARNING (SPECTRE-8360): line 1511: `ac' is an undefined primitive device.
    WARNING (SPECTRE-8360): line 1512: `ac' is an undefined primitive device.
    WARNING (SPECTRE-8360): line 1513: `ac' is an undefined primitive device.
    WARNING (SPECTRE-8360): line 1514: `ac' is an undefined primitive device.
    WARNING (SPECTRE-8360): line 1515: `ac' is an undefined primitive device.
        Further occurrences of this warning will be suppressed.

Reading file:  /opt/tools/cadence/installs/SPECTRE241/tools.lnx86/spectre/etc/configs/spectre.cfg
Reading file:  /opt/pdk/ams/410/spectre/c35/soac/soac.scs
Reading file:  /opt/pdk/ams/410/spectre/c35/soac/processOption.scs
Reading file:  /opt/pdk/ams/410/spectre/c35/soac/process.scs
Reading file:  /opt/pdk/ams/410/spectre/c35/soac/soac.va

Warning from spectre during AHDL read-in.
    WARNING (VACOMP-2435): The environment variable CDS_AHDLCMI_ENABLE is no longer supported. Therefore, the simulator will use the default compiled C code flow.

Reading link:  /opt/tools/cadence/installs/SPECTRE241/tools.lnx86/spectre/etc/ahdl/constants.h
Reading file:  /opt/tools/cadence/installs/SPECTRE241/tools.lnx86/spectre/etc/ahdl/constants.vams
Reading link:  /opt/tools/cadence/installs/SPECTRE241/tools.lnx86/spectre/etc/ahdl/discipline.h
Reading file:  /opt/tools/cadence/installs/SPECTRE241/tools.lnx86/spectre/etc/ahdl/disciplines.vams
Reading file:  /opt/pdk/ams/410/spectre/c35/processOption/C35B4C3.scs
Reading file:  /opt/pdk/ams/410/spectre/c35/soac/cmos53.scs
Reading file:  /opt/pdk/ams/410/spectre/c35/soac/res.scs
Reading file:  /opt/pdk/ams/410/spectre/c35/soac/cap.scs
Reading file:  /opt/pdk/ams/410/spectre/c35/soac/bip.scs
Reading file:  /opt/pdk/ams/410/spectre/c35/soac/ind.scs
Reading file:  /opt/pdk/ams/410/spectre/c35/soac/esddiode.scs
Time for NDB Parsing: CPU = 196.373 ms, elapsed = 367.635 ms.
Time accumulated: CPU = 394.565 ms, elapsed = 367.638 ms.
Peak resident memory used = 175 Mbytes.

Existing shared object for module modn_ahdl is up to date.
Installed compiled interface for modn_ahdl.
Existing shared object for module modp_ahdl is up to date.
Installed compiled interface for modp_ahdl.
Existing shared object for module cpoly_ahdl is up to date.
Installed compiled interface for cpoly_ahdl.
Existing shared object for module rpolyh_ahdl is up to date.
Installed compiled interface for rpolyh_ahdl.
Existing shared object for module bsource_fcab9d is up to date.
Installed compiled interface for bsource_fcab9d.
Time for Elaboration: CPU = 60.94 ms, elapsed = 63.5509 ms.
Time accumulated: CPU = 455.653 ms, elapsed = 431.336 ms.
Peak resident memory used = 188 Mbytes.


Notice from spectre during hierarchy flattening.
    The value 'psf' specified for the 'checklimitdest' option will no longer be supported in future releases. Use 'spectre -h' to see other recommended values for the 'checklimitdest' option.


*****************************************************************************************
* 
* INFO: AMS_processOption = C35B4C3
* 
* INFO: Valid Modules  PIP VG5 HIRES
* 
*****************************************************************************************


Time for EDB Visiting: CPU = 8.339 ms, elapsed = 8.35586 ms.
Time accumulated: CPU = 464.126 ms, elapsed = 439.824 ms.
Peak resident memory used = 191 Mbytes.

Loading /opt/tools/cadence/installs/SPECTRE241/tools.lnx86/mdl/lib/64bit/libSpectreEH_sh.so ...

Warning from spectre during initial setup.
    WARNING (SPECTRE-16460): SOAC_cvarm_vspsub:Specified subcircuit master `cvarm' was not found.
    WARNING (SPECTRE-16462): SOAC_cvarm_vspsub:Error in specification of subcircuit master. Assert is ignored.
    WARNING (SPECTRE-16460): SOAC_cvarm_vbs:Specified subcircuit master `cvarm' was not found.
    WARNING (SPECTRE-16462): SOAC_cvarm_vbs:Error in specification of subcircuit master. Assert is ignored.
    WARNING (SPECTRE-16460): SOAC_cvarm_vgb:Specified subcircuit master `cvarm' was not found.
    WARNING (SPECTRE-16462): SOAC_cvarm_vgb:Error in specification of subcircuit master. Assert is ignored.
    WARNING (SPECTRE-16460): SOAC_cvart_vspsub:Specified subcircuit master `cvart' was not found.
    WARNING (SPECTRE-16462): SOAC_cvart_vspsub:Error in specification of subcircuit master. Assert is ignored.
    WARNING (SPECTRE-16460): SOAC_cvart_vbs:Specified subcircuit master `cvart' was not found.
        Further occurrences of this warning will be suppressed.
    WARNING (SPECTRE-16462): SOAC_cvart_vbs:Error in specification of subcircuit master. Assert is ignored.
        Further occurrences of this warning will be suppressed.
Notice from spectre during topology check.
    Only one connection to the following 52 nodes:
        I0.MN6.psub!
        I0.MN5.psub!
        I0.MN4.psub!
        I0.MN3.psub!
        I0.MN2.psub!
        Further occurrences of this notice will be suppressed.
Notice from spectre during initial setup.
    Multithreading is disabled due to the size of the design being too small.


Netlist title:
        // Point Netlist Generated on: Apr 16 10:45:58 2026


Global user options:
         psfversion = 1.4.0
            vabstol = 1e-06
            iabstol = 1e-12
               temp = 27
           homotopy = 5
              limit = delta
         compatible = spice2
               gmin = 1e-12
             rforce = 1
           maxnotes = 5
           maxwarns = 5
             digits = 5
               cols = 80
             pivrel = 0.001
           sensfile = ../psf/sens.output
     checklimitdest = psf
     enable_pre_ver = yes
      ignorezerovar = yes
               save = allpub
             reltol = 0.0001
               tnom = 27
             scalem = 1
              scale = 1

Scoped user options:

Circuit inventory:
              nodes 84
            bsim3v3 33    
     bsource_fcab9d 2     
          capacitor 38    
         cpoly_ahdl 17    
            isource 1     
          modn_ahdl 19    
          modp_ahdl 14    
           resistor 1     
        rpolyh_ahdl 2     
            vsource 8     

Analysis and control statement inventory:
                 dc 1     
               info 8     
         montecarlo 1     
               tran 1     

Output statements:
             .probe 0     
           .measure 0     
               save 0     

Design checks inventory:
          paramtest 53    
             assert 175   


Notice from spectre during initial setup.
    APS enabled.
    1 notice suppressed.
    72 warnings suppressed.

Time for parsing: CPU = 19.231 ms, elapsed = 617.046 ms.
Time accumulated: CPU = 483.469 ms, elapsed = 1.05698 s.
Peak resident memory used = 197 Mbytes.

~~~~~~~~~~~~~~~~~~~~~~
Pre-Simulation Summary
~~~~~~~~~~~~~~~~~~~~~~
   -   (APS) Multi-threading. The recommended number of threads is 1, consider adding +mt=1 on command line.
~~~~~~~~~~~~~~~~~~~~~~

**************************************************
Monte Carlo Analysis `mc1': iteration = (14 -> 26)
**************************************************
Important parameter values:
    seed = 12345
    sampling = lds
    variations = all
    firstrun = 14
    numruns = 13
    nullmfactorcorrelation = no
    donominal = no
    method = standard
Opening iteration number and data-directory mapping file:  /home/davidevi/Desktop/myproject/Sim/VGA/VGA_1_tb/adexl/results/data/MonteCarlo.4/14/Linerity_MC/groupRunDataDir/netlist/../psf/mc1.mapping

Statistical parameters:
    Defined process parameters: 629
    Defined mismatch parameters (subckt based): 86
    Non-referenced mismatch parameters: 80
    Number of random variables: 714
    Gaussian truncation for process parameters: 4.00 sigma
    Gaussian truncation for mismatch parameters: 4.00 sigma


**** Skipping runs 1 to 13 for `mc1'


Opening the PSF file ../psf/mc1_dcOp.montecarlo ...

Opening the PSF file ../psf/mc1_dcOpInfo.montecarlo ...

Opening the PSF file ../psf/mc1_tran.montecarlo ...

Opening the PSF file ../psf/mc1_finalTimeOP.montecarlo ...

Opening the PSF file ../psf/mc1_modelParameter.montecarlo ...

Opening the PSF file ../psf/mc1_element.montecarlo ...

Opening the PSF file ../psf/mc1_outputParameter.montecarlo ...

Opening the PSF file ../psf/mc1_designParamVals.montecarlo ...

Opening the PSF file ../psf/mc1_primitives.montecarlo ...

Opening the PSF file ../psf/mc1_subckts.montecarlo ...

**** Performing monte carlo loop for `mc1'

14   0.00% 

*****************************************************************************************
* 
* INFO: AMS_processOption = C35B4C3
* 
* INFO: Valid Modules  PIP VG5 HIRES
* 
*****************************************************************************************


******************
DC Analysis `dcOp'
******************

Notice from spectre at iteration = 14 during DC analysis `dcOp', during Monte Carlo analysis `mc1'.
    No checklimit analysis defined for asserts. A default checklimit analysis 'SpectreChecklimitAnal' has been created with all asserts enabled.


Opening the PSF file ../psf/mc1_separate/014/dcOp.dc ...
Important parameter values:
    reltol = 100e-06
    abstol(V) = 1 uV
    abstol(I) = 1 pA
    temp = 27 C
    tnom = 27 C
    tempeffects = all
    gmindc = 1 pS
    rabsshort = 1 mOhm

Notice from spectre at iteration = 14 during DC analysis `dcOp', during Monte Carlo analysis `mc1'.
    Bad pivoting is found during DC analysis. Option dc_pivot_check=yes is recommended for possible improvement of convergence.


Maximum value achieved for any signal of each quantity: 
V: V(net2) = 3.3 V
I: I(V0:p) = 6.62 uA
Maximum value of each quantity, excluding Verilog-A modules or dangling current sources:
V: V(vout_filt) = 1.6 V
I: I(V0:p) = 6.62 uA

Warning from spectre at iteration = 14 during check, during DC analysis `dcOp', during Monte Carlo analysis `mc1'.
    WARNING (CMI-2943): Parameter checks have been ignored because the valid value for parameter 'trise' could not be found in 'C1'.
    WARNING (CMI-2943): Parameter checks have been ignored because the valid value for parameter 'trise' could not be found in 'I0.R2.CM'.
    WARNING (CMI-2943): Parameter checks have been ignored because the valid value for parameter 'trise' could not be found in 'I0.R2.CS1'.
    WARNING (CMI-2943): Parameter checks have been ignored because the valid value for parameter 'trise' could not be found in 'I0.R2.CS0'.
    WARNING (CMI-2943): Parameter checks have been ignored because the valid value for parameter 'trise' could not be found in 'I0.C8<3>.C1'.
        Further occurrences of this warning will be suppressed.

Convergence achieved in 19 iterations.
DC simulation time: CPU = 86.587 ms, elapsed = 92.9031 ms.
Total time required for dc analysis `dcOp': CPU = 87.159 ms, elapsed = 93.4739 ms, util. = 93.2%.
Time accumulated: CPU = 651.432 ms, elapsed = 1.24087 s.
Peak resident memory used = 209 Mbytes.


Notice from spectre at iteration = 14 during Monte Carlo analysis `mc1'.
    34 warnings suppressed.

dcOpInfo: writing operating point information to rawfile.

Opening the PSF file ../psf/mc1_separate/014/dcOpInfo.info ...

************************************************
Transient Analysis `tran': time = (0 s -> 40 ms)
************************************************

Opening the PSF file ../psf/mc1_separate/014/tran.tran.tran ...

Notice from spectre at iteration = 14 during IC analysis, during transient analysis `tran', during Monte Carlo analysis `mc1'.
    Bad pivoting is found during DC analysis. Option dc_pivot_check=yes is recommended for possible improvement of convergence.
Warning from spectre at iteration = 14 during check, during IC analysis, during transient analysis `tran', during Monte Carlo analysis `mc1'.
    WARNING (CMI-2943): Parameter checks have been ignored because the valid value for parameter 'trise' could not be found in 'C1'.
    WARNING (CMI-2943): Parameter checks have been ignored because the valid value for parameter 'trise' could not be found in 'I0.R2.CM'.
    WARNING (CMI-2943): Parameter checks have been ignored because the valid value for parameter 'trise' could not be found in 'I0.R2.CS1'.
    WARNING (CMI-2943): Parameter checks have been ignored because the valid value for parameter 'trise' could not be found in 'I0.R2.CS0'.
    WARNING (CMI-2943): Parameter checks have been ignored because the valid value for parameter 'trise' could not be found in 'I0.C8<3>.C1'.
        Further occurrences of this warning will be suppressed.

Convergence achieved in 19 iterations.
DC simulation time: CPU = 3.117 ms, elapsed = 3.11804 ms.
Important parameter values:
    start = 0 s
    outputstart = 0 s
    stop = 40 ms
    step = 40 us
    maxstep = 400 us
    ic = all
    useprevic = no
    skipdc = no
    reltol = 10e-06
    abstol(V) = 1 uV
    abstol(I) = 1 pA
    temp = 27 C
    tnom = 27 C
    tempeffects = all
    errpreset = conservative
    method = gear2only
    lteratio = 10
    relref = alllocal
    cmin = 0 F
    gmin = 1 pS
    rabsshort = 1 mOhm


Notice from spectre at iteration = 14 during transient analysis `tran', during Monte Carlo analysis `mc1'.
    Multithreading is disabled due to the size of the design being too small.


Output and IC/nodeset summary:
                 save   8       (current)
                 save   83      (voltage)

    tran: time = 1.021 ms    (2.55 %), step = 48.42 us     (121 m%)
    tran: time = 3.035 ms    (7.59 %), step = 47.38 us     (118 m%)
    tran: time = 5.002 ms    (12.5 %), step = 50 us        (125 m%)
    tran: time = 7.015 ms    (17.5 %), step = 48.93 us     (122 m%)
    tran: time = 9.029 ms    (22.6 %), step = 47.79 us     (119 m%)
    tran: time = 11.04 ms    (27.6 %), step = 46.89 us     (117 m%)
    tran: time = 13.01 ms    (32.5 %), step = 49.47 us     (124 m%)
    tran: time = 15.02 ms    (37.6 %), step = 48.25 us     (121 m%)
    tran: time = 17.04 ms    (42.6 %), step = 47.25 us     (118 m%)
    tran: time = 19 ms       (47.5 %), step = 50 us        (125 m%)
    tran: time = 21.02 ms    (52.5 %), step = 48.75 us     (122 m%)
    tran: time = 23.03 ms    (57.6 %), step = 47.64 us     (119 m%)
    tran: time = 25.04 ms    (62.6 %), step = 46.78 us     (117 m%)
    tran: time = 27.01 ms    (67.5 %), step = 49.28 us     (123 m%)
    tran: time = 29.03 ms    (72.6 %), step = 48.09 us     (120 m%)
    tran: time = 31.04 ms    (77.6 %), step = 47.13 us     (118 m%)
    tran: time = 33.01 ms    (82.5 %), step = 49.87 us     (125 m%)
    tran: time = 35.02 ms    (87.5 %), step = 48.58 us     (121 m%)
    tran: time = 37.03 ms    (92.6 %), step = 47.51 us     (119 m%)
    tran: time = 39.05 ms    (97.6 %), step = 46.68 us     (117 m%)
Number of accepted tran steps =             851

Maximum value achieved for any signal of each quantity: 
V: V(net2) = 3.3 V
I: I(V0:p) = 6.62 uA
Maximum value of each quantity, excluding Verilog-A modules or dangling current sources:
V: V(vout_filt) = 1.614 V
I: I(V0:p) = 6.62 uA

~~~~~~~~~~~~~~~~~~~~~~~~~~~~~~~~~
Post-Transient Simulation Summary
~~~~~~~~~~~~~~~~~~~~~~~~~~~~~~~~~
   -   To further speed up simulation, consider
          add ++aps on command line
   -   Non-default settings that could significantly slow down simulation
          errpreset = conservative, default moderate
          reltol = 10e-06, default 100e-06 (conservative)
~~~~~~~~~~~~~~~~~~~~~~~~~~~~~~~~~


During simulation, the CPU load for active processors is :
         0 (18.9 %)      1 (33.3 %)      2 (2.4 %)       3 (33.5 %)
         4 (3.0 %)       5 (6.1 %)       6 (99.4 %)      7 (6.6 %)
         8 (3.0 %)       9 (7.7 %)      10 (5.4 %)      11 (4.8 %)
        12 (16.6 %)     13 (4.8 %)      14 (10.8 %)     15 (2.4 %)
        16 (32.7 %)     17 (4.8 %)      18 (38.0 %)     19 (100.0 %)
        20 (1.2 %)      21 (4.2 %)      22 (10.9 %)     23 (3.0 %)
        24 (100.0 %)    25 (4.2 %)      26 (14.1 %)     27 (3.6 %)
        28 (20.4 %)     29 (100.0 %)    30 (7.1 %)      31 (4.9 %)
        32 (4.9 %)      33 (26.8 %)     34 (48.5 %)     35 (8.9 %)
        36 (3.6 %)      37 (4.2 %)      38 (60.8 %)     39 (3.6 %)
        40 (100.0 %)    41 (2.4 %)      42 (31.4 %)     43 (4.2 %)
        44 (4.8 %)      45 (4.2 %)      46 (6.5 %)      47 (6.6 %)
        Total: 1029.5%
Initial condition solution time: CPU = 3.152 ms, elapsed = 3.15309 ms.
Intrinsic tran analysis time:    CPU = 495.423 ms, elapsed = 497.408 ms.
Total time required for tran analysis `tran': CPU = 501.102 ms, elapsed = 503.889 ms, util. = 99.4%.
Time accumulated: CPU = 1.16195 s, elapsed = 1.75777 s.
Peak resident memory used = 213 Mbytes.


Notice from spectre during transient analysis `tran', during Monte Carlo analysis `mc1'.
    34 warnings suppressed.

finalTimeOP: writing operating point information to rawfile.

Opening the PSF file ../psf/mc1_separate/014/finalTimeOP.info ...
modelParameter: writing model parameter values to rawfile.

Opening the PSF file ../psf/mc1_separate/014/modelParameter.info ...
element: writing instance parameter values to rawfile.

Opening the PSF file ../psf/mc1_separate/014/element.info ...
outputParameter: writing output parameter values to rawfile.

Opening the PSF file ../psf/mc1_separate/014/outputParameter.info ...
designParamVals: writing netlist parameters to rawfile.

Opening the PSFASCII file ../psf/mc1_separate/014/designParamVals.info ...
primitives: writing primitives to rawfile.

Opening the PSFASCII file ../psf/mc1_separate/014/primitives.info.primitives ...
subckts: writing subcircuits to rawfile.

Opening the PSFASCII file ../psf/mc1_separate/014/subckts.info.subckts ...
15   8.33% 

*****************************************************************************************
* 
* INFO: AMS_processOption = C35B4C3
* 
* INFO: Valid Modules  PIP VG5 HIRES
* 
*****************************************************************************************


******************
DC Analysis `dcOp'
******************

Opening the PSF file ../psf/mc1_separate/015/dcOp.dc ...
Important parameter values:
    reltol = 100e-06
    abstol(V) = 1 uV
    abstol(I) = 1 pA
    temp = 27 C
    tnom = 27 C
    tempeffects = all
    gmindc = 1 pS
    rabsshort = 1 mOhm

Notice from spectre during DC analysis `dcOp', during Monte Carlo analysis `mc1'.
    Bad pivoting is found during DC analysis. Option dc_pivot_check=yes is recommended for possible improvement of convergence.


Maximum value achieved for any signal of each quantity: 
V: V(net2) = 3.3 V
I: I(V0:p) = 6.477 uA
Maximum value of each quantity, excluding Verilog-A modules or dangling current sources:
V: V(net1) = 1.6 V
I: I(V0:p) = 6.477 uA

Warning from spectre during check, during DC analysis `dcOp', during Monte Carlo analysis `mc1'.
    WARNING (CMI-2943): Parameter checks have been ignored because the valid value for parameter 'trise' could not be found in 'C1'.
    WARNING (CMI-2943): Parameter checks have been ignored because the valid value for parameter 'trise' could not be found in 'I0.R2.CM'.
    WARNING (CMI-2943): Parameter checks have been ignored because the valid value for parameter 'trise' could not be found in 'I0.R2.CS1'.
    WARNING (CMI-2943): Parameter checks have been ignored because the valid value for parameter 'trise' could not be found in 'I0.R2.CS0'.
    WARNING (CMI-2943): Parameter checks have been ignored because the valid value for parameter 'trise' could not be found in 'I0.C8<3>.C1'.
        Further occurrences of this warning will be suppressed.

Convergence achieved in 19 iterations.
DC simulation time: CPU = 5.565 ms, elapsed = 7.11322 ms.
Total time required for dc analysis `dcOp': CPU = 5.958 ms, elapsed = 7.50589 ms, util. = 79.4%.
Time accumulated: CPU = 1.21626 s, elapsed = 1.82596 s.
Peak resident memory used = 213 Mbytes.


Notice from spectre during Monte Carlo analysis `mc1'.
    34 warnings suppressed.

dcOpInfo: writing operating point information to rawfile.

Opening the PSF file ../psf/mc1_separate/015/dcOpInfo.info ...

************************************************
Transient Analysis `tran': time = (0 s -> 40 ms)
************************************************

Opening the PSF file ../psf/mc1_separate/015/tran.tran.tran ...

Notice from spectre during IC analysis, during transient analysis `tran', during Monte Carlo analysis `mc1'.
    Bad pivoting is found during DC analysis. Option dc_pivot_check=yes is recommended for possible improvement of convergence.
Warning from spectre during check, during IC analysis, during transient analysis `tran', during Monte Carlo analysis `mc1'.
    WARNING (CMI-2943): Parameter checks have been ignored because the valid value for parameter 'trise' could not be found in 'C1'.
    WARNING (CMI-2943): Parameter checks have been ignored because the valid value for parameter 'trise' could not be found in 'I0.R2.CM'.
    WARNING (CMI-2943): Parameter checks have been ignored because the valid value for parameter 'trise' could not be found in 'I0.R2.CS1'.
    WARNING (CMI-2943): Parameter checks have been ignored because the valid value for parameter 'trise' could not be found in 'I0.R2.CS0'.
    WARNING (CMI-2943): Parameter checks have been ignored because the valid value for parameter 'trise' could not be found in 'I0.C8<3>.C1'.
        Further occurrences of this warning will be suppressed.

Convergence achieved in 19 iterations.
DC simulation time: CPU = 2.772 ms, elapsed = 2.77305 ms.
Important parameter values:
    start = 0 s
    outputstart = 0 s
    stop = 40 ms
    step = 40 us
    maxstep = 400 us
    ic = all
    useprevic = no
    skipdc = no
    reltol = 10e-06
    abstol(V) = 1 uV
    abstol(I) = 1 pA
    temp = 27 C
    tnom = 27 C
    tempeffects = all
    errpreset = conservative
    method = gear2only
    lteratio = 10
    relref = alllocal
    cmin = 0 F
    gmin = 1 pS
    rabsshort = 1 mOhm


Notice from spectre during transient analysis `tran', during Monte Carlo analysis `mc1'.
    Multithreading is disabled due to the size of the design being too small.


Output and IC/nodeset summary:
                 save   8       (current)
                 save   83      (voltage)

    tran: time = 1.022 ms    (2.56 %), step = 48.29 us     (121 m%)
    tran: time = 3.036 ms    (7.59 %), step = 47.29 us     (118 m%)
    tran: time = 5.003 ms    (12.5 %), step = 50 us        (125 m%)
    tran: time = 7.016 ms    (17.5 %), step = 48.81 us     (122 m%)
    tran: time = 9.03 ms     (22.6 %), step = 47.69 us     (119 m%)
    tran: time = 11.04 ms    (27.6 %), step = 46.83 us     (117 m%)
    tran: time = 13.01 ms    (32.5 %), step = 49.36 us     (123 m%)
    tran: time = 15.02 ms    (37.6 %), step = 48.17 us     (120 m%)
    tran: time = 17.04 ms    (42.6 %), step = 47.18 us     (118 m%)
    tran: time = 19 ms       (47.5 %), step = 49.98 us     (125 m%)
    tran: time = 21.02 ms    (52.5 %), step = 48.67 us     (122 m%)
    tran: time = 23.03 ms    (57.6 %), step = 47.58 us     (119 m%)
    tran: time = 25.05 ms    (62.6 %), step = 46.74 us     (117 m%)
    tran: time = 27.01 ms    (67.5 %), step = 49.22 us     (123 m%)
    tran: time = 29.03 ms    (72.6 %), step = 48.04 us     (120 m%)
    tran: time = 31.04 ms    (77.6 %), step = 47.09 us     (118 m%)
    tran: time = 33.01 ms    (82.5 %), step = 49.82 us     (125 m%)
    tran: time = 35.02 ms    (87.5 %), step = 48.54 us     (121 m%)
    tran: time = 37.03 ms    (92.6 %), step = 47.48 us     (119 m%)
    tran: time = 39 ms       (97.5 %), step = 50 us        (125 m%)
Number of accepted tran steps =             851

Maximum value achieved for any signal of each quantity: 
V: V(net2) = 3.3 V
I: I(V0:p) = 6.477 uA
Maximum value of each quantity, excluding Verilog-A modules or dangling current sources:
V: V(vout_filt) = 1.613 V
I: I(V0:p) = 6.477 uA

~~~~~~~~~~~~~~~~~~~~~~~~~~~~~~~~~
Post-Transient Simulation Summary
~~~~~~~~~~~~~~~~~~~~~~~~~~~~~~~~~
   -   To further speed up simulation, consider
          add ++aps on command line
   -   Non-default settings that could significantly slow down simulation
          errpreset = conservative, default moderate
          reltol = 10e-06, default 100e-06 (conservative)
~~~~~~~~~~~~~~~~~~~~~~~~~~~~~~~~~


During simulation, the CPU load for active processors is :
         0 (15.0 %)      1 (26.0 %)      2 (4.5 %)       3 (49.8 %)
         4 (2.7 %)       5 (10.4 %)      6 (99.6 %)      7 (11.7 %)
         8 (4.5 %)       9 (6.7 %)      10 (4.5 %)      11 (6.7 %)
        12 (14.4 %)     13 (4.1 %)      14 (14.2 %)     15 (2.2 %)
        16 (24.8 %)     17 (8.5 %)      18 (52.7 %)     19 (100.0 %)
        21 (5.4 %)      22 (8.1 %)      23 (2.7 %)      24 (100.0 %)
        25 (3.6 %)      26 (10.6 %)     27 (3.1 %)      28 (20.4 %)
        29 (100.0 %)    30 (6.2 %)      31 (3.7 %)      32 (4.5 %)
        33 (21.0 %)     34 (60.4 %)     35 (7.9 %)      36 (6.8 %)
        37 (4.4 %)      38 (68.9 %)     39 (2.7 %)      40 (100.0 %)
        41 (7.7 %)      42 (24.0 %)     43 (4.5 %)      44 (4.0 %)
        45 (4.0 %)      46 (6.2 %)      47 (6.3 %)      
        Total: 1060.7%
Initial condition solution time: CPU = 2.805 ms, elapsed = 2.8069 ms.
Intrinsic tran analysis time:    CPU = 492.289 ms, elapsed = 494.223 ms.
Total time required for tran analysis `tran': CPU = 496.959 ms, elapsed = 499.516 ms, util. = 99.5%.
Time accumulated: CPU = 1.71989 s, elapsed = 2.33524 s.
Peak resident memory used = 213 Mbytes.


Notice from spectre during transient analysis `tran', during Monte Carlo analysis `mc1'.
    34 warnings suppressed.

finalTimeOP: writing operating point information to rawfile.

Opening the PSF file ../psf/mc1_separate/015/finalTimeOP.info ...
modelParameter: writing model parameter values to rawfile.

Opening the PSF file ../psf/mc1_separate/015/modelParameter.info ...
element: writing instance parameter values to rawfile.

Opening the PSF file ../psf/mc1_separate/015/element.info ...
outputParameter: writing output parameter values to rawfile.

Opening the PSF file ../psf/mc1_separate/015/outputParameter.info ...
designParamVals: writing netlist parameters to rawfile.

Opening the PSFASCII file ../psf/mc1_separate/015/designParamVals.info ...
primitives: writing primitives to rawfile.

Opening the PSFASCII file ../psf/mc1_separate/015/primitives.info.primitives ...
subckts: writing subcircuits to rawfile.

Opening the PSFASCII file ../psf/mc1_separate/015/subckts.info.subckts ...
    mc1: iteration = 15          (8.33 %), step = 1            (8.33 %)
16  16.67% 

*****************************************************************************************
* 
* INFO: AMS_processOption = C35B4C3
* 
* INFO: Valid Modules  PIP VG5 HIRES
* 
*****************************************************************************************


******************
DC Analysis `dcOp'
******************

Opening the PSF file ../psf/mc1_separate/016/dcOp.dc ...
Important parameter values:
    reltol = 100e-06
    abstol(V) = 1 uV
    abstol(I) = 1 pA
    temp = 27 C
    tnom = 27 C
    tempeffects = all
    gmindc = 1 pS
    rabsshort = 1 mOhm

Notice from spectre during DC analysis `dcOp', during Monte Carlo analysis `mc1'.
    Bad pivoting is found during DC analysis. Option dc_pivot_check=yes is recommended for possible improvement of convergence.


Maximum value achieved for any signal of each quantity: 
V: V(net2) = 3.3 V
I: I(V0:p) = 6.255 uA
Maximum value of each quantity, excluding Verilog-A modules or dangling current sources:
V: V(vout_filt) = 1.6 V
I: I(V0:p) = 6.255 uA

Warning from spectre during check, during DC analysis `dcOp', during Monte Carlo analysis `mc1'.
    WARNING (CMI-2943): Parameter checks have been ignored because the valid value for parameter 'trise' could not be found in 'C1'.
    WARNING (CMI-2943): Parameter checks have been ignored because the valid value for parameter 'trise' could not be found in 'I0.R2.CM'.
    WARNING (CMI-2943): Parameter checks have been ignored because the valid value for parameter 'trise' could not be found in 'I0.R2.CS1'.
    WARNING (CMI-2943): Parameter checks have been ignored because the valid value for parameter 'trise' could not be found in 'I0.R2.CS0'.
    WARNING (CMI-2943): Parameter checks have been ignored because the valid value for parameter 'trise' could not be found in 'I0.C8<3>.C1'.
        Further occurrences of this warning will be suppressed.

Convergence achieved in 20 iterations.
DC simulation time: CPU = 5.214 ms, elapsed = 6.98209 ms.
Total time required for dc analysis `dcOp': CPU = 5.545 ms, elapsed = 7.31397 ms, util. = 75.8%.
Time accumulated: CPU = 1.76687 s, elapsed = 2.3958 s.
Peak resident memory used = 213 Mbytes.


Notice from spectre during Monte Carlo analysis `mc1'.
    34 warnings suppressed.

dcOpInfo: writing operating point information to rawfile.

Opening the PSF file ../psf/mc1_separate/016/dcOpInfo.info ...

************************************************
Transient Analysis `tran': time = (0 s -> 40 ms)
************************************************

Opening the PSF file ../psf/mc1_separate/016/tran.tran.tran ...

Notice from spectre during IC analysis, during transient analysis `tran', during Monte Carlo analysis `mc1'.
    Bad pivoting is found during DC analysis. Option dc_pivot_check=yes is recommended for possible improvement of convergence.
Warning from spectre during check, during IC analysis, during transient analysis `tran', during Monte Carlo analysis `mc1'.
    WARNING (CMI-2943): Parameter checks have been ignored because the valid value for parameter 'trise' could not be found in 'C1'.
    WARNING (CMI-2943): Parameter checks have been ignored because the valid value for parameter 'trise' could not be found in 'I0.R2.CM'.
    WARNING (CMI-2943): Parameter checks have been ignored because the valid value for parameter 'trise' could not be found in 'I0.R2.CS1'.
    WARNING (CMI-2943): Parameter checks have been ignored because the valid value for parameter 'trise' could not be found in 'I0.R2.CS0'.
    WARNING (CMI-2943): Parameter checks have been ignored because the valid value for parameter 'trise' could not be found in 'I0.C8<3>.C1'.
        Further occurrences of this warning will be suppressed.

Convergence achieved in 20 iterations.
DC simulation time: CPU = 2.814 ms, elapsed = 2.81405 ms.
Important parameter values:
    start = 0 s
    outputstart = 0 s
    stop = 40 ms
    step = 40 us
    maxstep = 400 us
    ic = all
    useprevic = no
    skipdc = no
    reltol = 10e-06
    abstol(V) = 1 uV
    abstol(I) = 1 pA
    temp = 27 C
    tnom = 27 C
    tempeffects = all
    errpreset = conservative
    method = gear2only
    lteratio = 10
    relref = alllocal
    cmin = 0 F
    gmin = 1 pS
    rabsshort = 1 mOhm


Notice from spectre during transient analysis `tran', during Monte Carlo analysis `mc1'.
    Multithreading is disabled due to the size of the design being too small.


Output and IC/nodeset summary:
                 save   8       (current)
                 save   83      (voltage)

    tran: time = 1.02 ms     (2.55 %), step = 48.53 us     (121 m%)
    tran: time = 3.034 ms    (7.58 %), step = 47.46 us     (119 m%)
    tran: time = 5.001 ms    (12.5 %), step = 50 us        (125 m%)
    tran: time = 7.014 ms    (17.5 %), step = 49.03 us     (123 m%)
    tran: time = 9.028 ms    (22.6 %), step = 47.87 us     (120 m%)
    tran: time = 11.04 ms    (27.6 %), step = 46.95 us     (117 m%)
    tran: time = 13.01 ms    (32.5 %), step = 49.57 us     (124 m%)
    tran: time = 15.02 ms    (37.6 %), step = 48.32 us     (121 m%)
    tran: time = 17.04 ms    (42.6 %), step = 47.3 us      (118 m%)
    tran: time = 19 ms       (47.5 %), step = 50 us        (125 m%)
    tran: time = 21.02 ms    (52.5 %), step = 48.81 us     (122 m%)
    tran: time = 23.03 ms    (57.6 %), step = 47.69 us     (119 m%)
    tran: time = 25.04 ms    (62.6 %), step = 46.82 us     (117 m%)
    tran: time = 27.01 ms    (67.5 %), step = 49.33 us     (123 m%)
    tran: time = 29.02 ms    (72.6 %), step = 48.13 us     (120 m%)
    tran: time = 31.04 ms    (77.6 %), step = 47.15 us     (118 m%)
    tran: time = 33.01 ms    (82.5 %), step = 49.91 us     (125 m%)
    tran: time = 35.02 ms    (87.5 %), step = 48.6 us      (122 m%)
    tran: time = 37.03 ms    (92.6 %), step = 47.52 us     (119 m%)
    tran: time = 39.05 ms    (97.6 %), step = 46.69 us     (117 m%)
Number of accepted tran steps =             851

Maximum value achieved for any signal of each quantity: 
V: V(net2) = 3.3 V
I: I(V0:p) = 6.256 uA
Maximum value of each quantity, excluding Verilog-A modules or dangling current sources:
V: V(vout_filt) = 1.614 V
I: I(V0:p) = 6.256 uA

~~~~~~~~~~~~~~~~~~~~~~~~~~~~~~~~~
Post-Transient Simulation Summary
~~~~~~~~~~~~~~~~~~~~~~~~~~~~~~~~~
   -   To further speed up simulation, consider
          add ++aps on command line
   -   Non-default settings that could significantly slow down simulation
          errpreset = conservative, default moderate
          reltol = 10e-06, default 100e-06 (conservative)
~~~~~~~~~~~~~~~~~~~~~~~~~~~~~~~~~


During simulation, the CPU load for active processors is :
         0 (20.7 %)      1 (22.1 %)      2 (6.1 %)       3 (51.3 %)
         4 (6.9 %)       5 (10.4 %)      6 (99.6 %)      7 (25.5 %)
         8 (6.8 %)       9 (5.7 %)      10 (4.7 %)      11 (7.1 %)
        12 (13.3 %)     13 (4.0 %)      14 (15.0 %)     15 (2.5 %)
        16 (20.1 %)     17 (7.5 %)      18 (61.8 %)     19 (100.0 %)
        20 (1.1 %)      21 (4.3 %)      22 (6.5 %)      23 (8.2 %)
        24 (100.0 %)    25 (3.2 %)      26 (19.0 %)     27 (2.9 %)
        28 (20.2 %)     29 (100.0 %)    30 (5.7 %)      31 (11.2 %)
        32 (6.1 %)      33 (17.1 %)     34 (57.7 %)     35 (6.7 %)
        36 (6.2 %)      37 (5.0 %)      38 (74.6 %)     39 (3.2 %)
        40 (100.0 %)    41 (8.2 %)      42 (19.9 %)     43 (4.3 %)
        44 (3.2 %)      45 (3.2 %)      46 (5.3 %)      47 (5.1 %)
        Total: 1099.3%
Initial condition solution time: CPU = 2.867 ms, elapsed = 2.86889 ms.
Intrinsic tran analysis time:    CPU = 491.611 ms, elapsed = 493.513 ms.
Total time required for tran analysis `tran': CPU = 496.327 ms, elapsed = 498.772 ms, util. = 99.5%.
Time accumulated: CPU = 2.26961 s, elapsed = 2.90395 s.
Peak resident memory used = 213 Mbytes.


Notice from spectre during transient analysis `tran', during Monte Carlo analysis `mc1'.
    34 warnings suppressed.

finalTimeOP: writing operating point information to rawfile.

Opening the PSF file ../psf/mc1_separate/016/finalTimeOP.info ...
modelParameter: writing model parameter values to rawfile.

Opening the PSF file ../psf/mc1_separate/016/modelParameter.info ...
element: writing instance parameter values to rawfile.

Opening the PSF file ../psf/mc1_separate/016/element.info ...
outputParameter: writing output parameter values to rawfile.

Opening the PSF file ../psf/mc1_separate/016/outputParameter.info ...
designParamVals: writing netlist parameters to rawfile.

Opening the PSFASCII file ../psf/mc1_separate/016/designParamVals.info ...
primitives: writing primitives to rawfile.

Opening the PSFASCII file ../psf/mc1_separate/016/primitives.info.primitives ...
subckts: writing subcircuits to rawfile.

Opening the PSFASCII file ../psf/mc1_separate/016/subckts.info.subckts ...
    mc1: iteration = 16          (16.7 %), step = 1            (8.33 %)
17  25.00% 

*****************************************************************************************
* 
* INFO: AMS_processOption = C35B4C3
* 
* INFO: Valid Modules  PIP VG5 HIRES
* 
*****************************************************************************************


******************
DC Analysis `dcOp'
******************

Opening the PSF file ../psf/mc1_separate/017/dcOp.dc ...
Important parameter values:
    reltol = 100e-06
    abstol(V) = 1 uV
    abstol(I) = 1 pA
    temp = 27 C
    tnom = 27 C
    tempeffects = all
    gmindc = 1 pS
    rabsshort = 1 mOhm

Notice from spectre during DC analysis `dcOp', during Monte Carlo analysis `mc1'.
    Bad pivoting is found during DC analysis. Option dc_pivot_check=yes is recommended for possible improvement of convergence.


Maximum value achieved for any signal of each quantity: 
V: V(net2) = 3.3 V
I: I(V0:p) = 6.546 uA
Maximum value of each quantity, excluding Verilog-A modules or dangling current sources:
V: V(net1) = 1.6 V
I: I(V0:p) = 6.546 uA

Warning from spectre during check, during DC analysis `dcOp', during Monte Carlo analysis `mc1'.
    WARNING (CMI-2943): Parameter checks have been ignored because the valid value for parameter 'trise' could not be found in 'C1'.
    WARNING (CMI-2943): Parameter checks have been ignored because the valid value for parameter 'trise' could not be found in 'I0.R2.CM'.
    WARNING (CMI-2943): Parameter checks have been ignored because the valid value for parameter 'trise' could not be found in 'I0.R2.CS1'.
    WARNING (CMI-2943): Parameter checks have been ignored because the valid value for parameter 'trise' could not be found in 'I0.R2.CS0'.
    WARNING (CMI-2943): Parameter checks have been ignored because the valid value for parameter 'trise' could not be found in 'I0.C8<3>.C1'.
        Further occurrences of this warning will be suppressed.

Convergence achieved in 19 iterations.
DC simulation time: CPU = 5.64 ms, elapsed = 7.28488 ms.
Total time required for dc analysis `dcOp': CPU = 6.142 ms, elapsed = 7.78699 ms, util. = 78.9%.
Time accumulated: CPU = 2.31725 s, elapsed = 2.96429 s.
Peak resident memory used = 213 Mbytes.


Notice from spectre during Monte Carlo analysis `mc1'.
    34 warnings suppressed.

dcOpInfo: writing operating point information to rawfile.

Opening the PSF file ../psf/mc1_separate/017/dcOpInfo.info ...

************************************************
Transient Analysis `tran': time = (0 s -> 40 ms)
************************************************

Opening the PSF file ../psf/mc1_separate/017/tran.tran.tran ...

Notice from spectre during IC analysis, during transient analysis `tran', during Monte Carlo analysis `mc1'.
    Bad pivoting is found during DC analysis. Option dc_pivot_check=yes is recommended for possible improvement of convergence.
Warning from spectre during check, during IC analysis, during transient analysis `tran', during Monte Carlo analysis `mc1'.
    WARNING (CMI-2943): Parameter checks have been ignored because the valid value for parameter 'trise' could not be found in 'C1'.
    WARNING (CMI-2943): Parameter checks have been ignored because the valid value for parameter 'trise' could not be found in 'I0.R2.CM'.
    WARNING (CMI-2943): Parameter checks have been ignored because the valid value for parameter 'trise' could not be found in 'I0.R2.CS1'.
    WARNING (CMI-2943): Parameter checks have been ignored because the valid value for parameter 'trise' could not be found in 'I0.R2.CS0'.
    WARNING (CMI-2943): Parameter checks have been ignored because the valid value for parameter 'trise' could not be found in 'I0.C8<3>.C1'.
        Further occurrences of this warning will be suppressed.

Convergence achieved in 19 iterations.
DC simulation time: CPU = 2.725 ms, elapsed = 2.72584 ms.
Important parameter values:
    start = 0 s
    outputstart = 0 s
    stop = 40 ms
    step = 40 us
    maxstep = 400 us
    ic = all
    useprevic = no
    skipdc = no
    reltol = 10e-06
    abstol(V) = 1 uV
    abstol(I) = 1 pA
    temp = 27 C
    tnom = 27 C
    tempeffects = all
    errpreset = conservative
    method = gear2only
    lteratio = 10
    relref = alllocal
    cmin = 0 F
    gmin = 1 pS
    rabsshort = 1 mOhm


Notice from spectre during transient analysis `tran', during Monte Carlo analysis `mc1'.
    Multithreading is disabled due to the size of the design being too small.


Output and IC/nodeset summary:
                 save   8       (current)
                 save   83      (voltage)

    tran: time = 1.001 ms     (2.5 %), step = 50 us        (125 m%)
    tran: time = 3.013 ms    (7.53 %), step = 49.1 us      (123 m%)
    tran: time = 5.026 ms    (12.6 %), step = 47.98 us     (120 m%)
    tran: time = 7.039 ms    (17.6 %), step = 47.07 us     (118 m%)
    tran: time = 9.006 ms    (22.5 %), step = 49.85 us     (125 m%)
    tran: time = 11.02 ms    (27.5 %), step = 48.61 us     (122 m%)
    tran: time = 13.03 ms    (32.6 %), step = 47.57 us     (119 m%)
    tran: time = 15.04 ms    (37.6 %), step = 46.75 us     (117 m%)
    tran: time = 17.01 ms    (42.5 %), step = 49.3 us      (123 m%)
    tran: time = 19.02 ms    (47.6 %), step = 48.15 us     (120 m%)
    tran: time = 21.04 ms    (52.6 %), step = 47.2 us      (118 m%)
    tran: time = 23 ms       (57.5 %), step = 50 us        (125 m%)
    tran: time = 25.02 ms    (62.5 %), step = 48.79 us     (122 m%)
    tran: time = 27.03 ms    (67.6 %), step = 47.71 us     (119 m%)
    tran: time = 29.04 ms    (72.6 %), step = 46.86 us     (117 m%)
    tran: time = 31.01 ms    (77.5 %), step = 49.49 us     (124 m%)
    tran: time = 33.02 ms    (82.6 %), step = 48.31 us     (121 m%)
    tran: time = 35.04 ms    (87.6 %), step = 47.32 us     (118 m%)
    tran: time = 37 ms       (92.5 %), step = 50 us        (125 m%)
    tran: time = 39.01 ms    (97.5 %), step = 48.96 us     (122 m%)
Number of accepted tran steps =             851

Maximum value achieved for any signal of each quantity: 
V: V(net2) = 3.3 V
I: I(V0:p) = 6.546 uA
Maximum value of each quantity, excluding Verilog-A modules or dangling current sources:
V: V(vout_filt) = 1.611 V
I: I(V0:p) = 6.546 uA

~~~~~~~~~~~~~~~~~~~~~~~~~~~~~~~~~
Post-Transient Simulation Summary
~~~~~~~~~~~~~~~~~~~~~~~~~~~~~~~~~
   -   To further speed up simulation, consider
          add ++aps on command line
   -   Non-default settings that could significantly slow down simulation
          errpreset = conservative, default moderate
          reltol = 10e-06, default 100e-06 (conservative)
~~~~~~~~~~~~~~~~~~~~~~~~~~~~~~~~~


During simulation, the CPU load for active processors is :
         0 (33.1 %)      1 (19.9 %)      2 (5.1 %)       3 (43.2 %)
         4 (6.9 %)       5 (9.3 %)       6 (99.7 %)      7 (29.6 %)
         8 (5.7 %)       9 (5.3 %)      10 (4.5 %)      11 (6.6 %)
        12 (11.7 %)     13 (3.9 %)      14 (15.1 %)     15 (4.2 %)
        16 (17.6 %)     17 (6.5 %)      18 (67.8 %)     19 (100.0 %)
        20 (10.5 %)     21 (4.7 %)      22 (6.3 %)      23 (19.3 %)
        24 (100.0 %)    25 (7.1 %)      26 (23.5 %)     27 (2.4 %)
        28 (18.6 %)     29 (100.0 %)    30 (4.7 %)      31 (26.3 %)
        32 (5.7 %)      33 (14.5 %)     34 (56.7 %)     35 (7.9 %)
        36 (13.8 %)     37 (5.9 %)      38 (78.3 %)     39 (3.9 %)
        40 (100.0 %)    41 (8.1 %)      42 (17.5 %)     43 (4.2 %)
        44 (3.0 %)      45 (3.0 %)      46 (5.9 %)      47 (7.2 %)
        Total: 1154.7%
Initial condition solution time: CPU = 2.758 ms, elapsed = 2.75993 ms.
Intrinsic tran analysis time:    CPU = 494.941 ms, elapsed = 496.737 ms.
Total time required for tran analysis `tran': CPU = 499.552 ms, elapsed = 501.861 ms, util. = 99.5%.
Time accumulated: CPU = 2.82353 s, elapsed = 3.47547 s.
Peak resident memory used = 213 Mbytes.


Notice from spectre during transient analysis `tran', during Monte Carlo analysis `mc1'.
    34 warnings suppressed.

finalTimeOP: writing operating point information to rawfile.

Opening the PSF file ../psf/mc1_separate/017/finalTimeOP.info ...
modelParameter: writing model parameter values to rawfile.

Opening the PSF file ../psf/mc1_separate/017/modelParameter.info ...
element: writing instance parameter values to rawfile.

Opening the PSF file ../psf/mc1_separate/017/element.info ...
outputParameter: writing output parameter values to rawfile.

Opening the PSF file ../psf/mc1_separate/017/outputParameter.info ...
designParamVals: writing netlist parameters to rawfile.

Opening the PSFASCII file ../psf/mc1_separate/017/designParamVals.info ...
primitives: writing primitives to rawfile.

Opening the PSFASCII file ../psf/mc1_separate/017/primitives.info.primitives ...
subckts: writing subcircuits to rawfile.

Opening the PSFASCII file ../psf/mc1_separate/017/subckts.info.subckts ...
    mc1: iteration = 17            (25 %), step = 1            (8.33 %)
18  33.33% 

*****************************************************************************************
* 
* INFO: AMS_processOption = C35B4C3
* 
* INFO: Valid Modules  PIP VG5 HIRES
* 
*****************************************************************************************


******************
DC Analysis `dcOp'
******************

Opening the PSF file ../psf/mc1_separate/018/dcOp.dc ...
Important parameter values:
    reltol = 100e-06
    abstol(V) = 1 uV
    abstol(I) = 1 pA
    temp = 27 C
    tnom = 27 C
    tempeffects = all
    gmindc = 1 pS
    rabsshort = 1 mOhm

Notice from spectre during DC analysis `dcOp', during Monte Carlo analysis `mc1'.
    Bad pivoting is found during DC analysis. Option dc_pivot_check=yes is recommended for possible improvement of convergence.


Maximum value achieved for any signal of each quantity: 
V: V(net2) = 3.3 V
I: I(V0:p) = 6.382 uA
Maximum value of each quantity, excluding Verilog-A modules or dangling current sources:
V: V(vout_filt) = 1.601 V
I: I(V0:p) = 6.382 uA

Warning from spectre during check, during DC analysis `dcOp', during Monte Carlo analysis `mc1'.
    WARNING (CMI-2943): Parameter checks have been ignored because the valid value for parameter 'trise' could not be found in 'C1'.
    WARNING (CMI-2943): Parameter checks have been ignored because the valid value for parameter 'trise' could not be found in 'I0.R2.CM'.
    WARNING (CMI-2943): Parameter checks have been ignored because the valid value for parameter 'trise' could not be found in 'I0.R2.CS1'.
    WARNING (CMI-2943): Parameter checks have been ignored because the valid value for parameter 'trise' could not be found in 'I0.R2.CS0'.
    WARNING (CMI-2943): Parameter checks have been ignored because the valid value for parameter 'trise' could not be found in 'I0.C8<3>.C1'.
        Further occurrences of this warning will be suppressed.

Convergence achieved in 17 iterations.
DC simulation time: CPU = 5.218 ms, elapsed = 6.62303 ms.
Total time required for dc analysis `dcOp': CPU = 5.607 ms, elapsed = 7.01094 ms, util. = 80%.
Time accumulated: CPU = 2.87071 s, elapsed = 3.53455 s.
Peak resident memory used = 213 Mbytes.


Notice from spectre during Monte Carlo analysis `mc1'.
    34 warnings suppressed.

dcOpInfo: writing operating point information to rawfile.

Opening the PSF file ../psf/mc1_separate/018/dcOpInfo.info ...

************************************************
Transient Analysis `tran': time = (0 s -> 40 ms)
************************************************

Opening the PSF file ../psf/mc1_separate/018/tran.tran.tran ...

Notice from spectre during IC analysis, during transient analysis `tran', during Monte Carlo analysis `mc1'.
    Bad pivoting is found during DC analysis. Option dc_pivot_check=yes is recommended for possible improvement of convergence.
Warning from spectre during check, during IC analysis, during transient analysis `tran', during Monte Carlo analysis `mc1'.
    WARNING (CMI-2943): Parameter checks have been ignored because the valid value for parameter 'trise' could not be found in 'C1'.
    WARNING (CMI-2943): Parameter checks have been ignored because the valid value for parameter 'trise' could not be found in 'I0.R2.CM'.
    WARNING (CMI-2943): Parameter checks have been ignored because the valid value for parameter 'trise' could not be found in 'I0.R2.CS1'.
    WARNING (CMI-2943): Parameter checks have been ignored because the valid value for parameter 'trise' could not be found in 'I0.R2.CS0'.
    WARNING (CMI-2943): Parameter checks have been ignored because the valid value for parameter 'trise' could not be found in 'I0.C8<3>.C1'.
        Further occurrences of this warning will be suppressed.

Convergence achieved in 17 iterations.
DC simulation time: CPU = 2.567 ms, elapsed = 2.58017 ms.
Important parameter values:
    start = 0 s
    outputstart = 0 s
    stop = 40 ms
    step = 40 us
    maxstep = 400 us
    ic = all
    useprevic = no
    skipdc = no
    reltol = 10e-06
    abstol(V) = 1 uV
    abstol(I) = 1 pA
    temp = 27 C
    tnom = 27 C
    tempeffects = all
    errpreset = conservative
    method = gear2only
    lteratio = 10
    relref = alllocal
    cmin = 0 F
    gmin = 1 pS
    rabsshort = 1 mOhm


Notice from spectre during transient analysis `tran', during Monte Carlo analysis `mc1'.
    Multithreading is disabled due to the size of the design being too small.


Output and IC/nodeset summary:
                 save   8       (current)
                 save   83      (voltage)

    tran: time = 1.022 ms    (2.56 %), step = 48.32 us     (121 m%)
    tran: time = 3.036 ms    (7.59 %), step = 47.3 us      (118 m%)
    tran: time = 5.003 ms    (12.5 %), step = 50 us        (125 m%)
    tran: time = 7.017 ms    (17.5 %), step = 48.79 us     (122 m%)
    tran: time = 9.031 ms    (22.6 %), step = 47.66 us     (119 m%)
    tran: time = 11.04 ms    (27.6 %), step = 46.79 us     (117 m%)
    tran: time = 13.01 ms    (32.5 %), step = 49.28 us     (123 m%)
    tran: time = 15.03 ms    (37.6 %), step = 48.07 us     (120 m%)
    tran: time = 17.04 ms    (42.6 %), step = 47.11 us     (118 m%)
    tran: time = 19.01 ms    (47.5 %), step = 49.82 us     (125 m%)
    tran: time = 21.02 ms    (52.5 %), step = 48.53 us     (121 m%)
    tran: time = 23.03 ms    (57.6 %), step = 47.46 us     (119 m%)
    tran: time = 25 ms       (62.5 %), step = 50 us        (125 m%)
    tran: time = 27.01 ms    (67.5 %), step = 49.01 us     (123 m%)
    tran: time = 29.03 ms    (72.6 %), step = 47.84 us     (120 m%)
    tran: time = 31.04 ms    (77.6 %), step = 46.93 us     (117 m%)
    tran: time = 33.01 ms    (82.5 %), step = 49.51 us     (124 m%)
    tran: time = 35.02 ms    (87.6 %), step = 48.27 us     (121 m%)
    tran: time = 37.04 ms    (92.6 %), step = 47.26 us     (118 m%)
    tran: time = 39 ms       (97.5 %), step = 50 us        (125 m%)
Number of accepted tran steps =             851

Maximum value achieved for any signal of each quantity: 
V: V(net2) = 3.3 V
I: I(V0:p) = 6.382 uA
Maximum value of each quantity, excluding Verilog-A modules or dangling current sources:
V: V(vout_filt) = 1.615 V
I: I(V0:p) = 6.382 uA

~~~~~~~~~~~~~~~~~~~~~~~~~~~~~~~~~
Post-Transient Simulation Summary
~~~~~~~~~~~~~~~~~~~~~~~~~~~~~~~~~
   -   To further speed up simulation, consider
          add ++aps on command line
   -   Non-default settings that could significantly slow down simulation
          errpreset = conservative, default moderate
          reltol = 10e-06, default 100e-06 (conservative)
~~~~~~~~~~~~~~~~~~~~~~~~~~~~~~~~~


During simulation, the CPU load for active processors is :
         0 (35.5 %)      1 (17.3 %)      2 (4.4 %)       3 (37.2 %)
         4 (6.4 %)       5 (8.9 %)       6 (99.7 %)      7 (33.1 %)
         8 (5.4 %)       9 (5.3 %)      10 (3.8 %)      11 (5.6 %)
        12 (12.0 %)     13 (3.6 %)      14 (13.2 %)     15 (6.9 %)
        16 (15.4 %)     17 (6.6 %)      18 (62.9 %)     19 (100.0 %)
        20 (23.3 %)     21 (5.1 %)      22 (16.1 %)     23 (17.0 %)
        24 (100.0 %)    25 (13.5 %)     26 (27.5 %)     27 (2.3 %)
        28 (16.8 %)     29 (100.0 %)    30 (4.8 %)      31 (36.0 %)
        32 (5.4 %)      33 (12.7 %)     34 (62.0 %)     35 (7.3 %)
        36 (26.2 %)     37 (8.6 %)      38 (80.8 %)     39 (3.6 %)
        40 (100.0 %)    41 (8.0 %)      42 (15.0 %)     43 (3.6 %)
        44 (2.8 %)      45 (3.8 %)      46 (5.6 %)      47 (8.2 %)
        Total: 1199.3%
Initial condition solution time: CPU = 2.601 ms, elapsed = 2.61402 ms.
Intrinsic tran analysis time:    CPU = 499.068 ms, elapsed = 500.668 ms.
Total time required for tran analysis `tran': CPU = 503.666 ms, elapsed = 505.896 ms, util. = 99.6%.
Time accumulated: CPU = 3.3811 s, elapsed = 4.04975 s.
Peak resident memory used = 213 Mbytes.


Notice from spectre during transient analysis `tran', during Monte Carlo analysis `mc1'.
    34 warnings suppressed.

finalTimeOP: writing operating point information to rawfile.

Opening the PSF file ../psf/mc1_separate/018/finalTimeOP.info ...
modelParameter: writing model parameter values to rawfile.

Opening the PSF file ../psf/mc1_separate/018/modelParameter.info ...
element: writing instance parameter values to rawfile.

Opening the PSF file ../psf/mc1_separate/018/element.info ...
outputParameter: writing output parameter values to rawfile.

Opening the PSF file ../psf/mc1_separate/018/outputParameter.info ...
designParamVals: writing netlist parameters to rawfile.

Opening the PSFASCII file ../psf/mc1_separate/018/designParamVals.info ...
primitives: writing primitives to rawfile.

Opening the PSFASCII file ../psf/mc1_separate/018/primitives.info.primitives ...
subckts: writing subcircuits to rawfile.

Opening the PSFASCII file ../psf/mc1_separate/018/subckts.info.subckts ...
    mc1: iteration = 18          (33.3 %), step = 1            (8.33 %)
19  41.67% 

*****************************************************************************************
* 
* INFO: AMS_processOption = C35B4C3
* 
* INFO: Valid Modules  PIP VG5 HIRES
* 
*****************************************************************************************


******************
DC Analysis `dcOp'
******************

Opening the PSF file ../psf/mc1_separate/019/dcOp.dc ...
Important parameter values:
    reltol = 100e-06
    abstol(V) = 1 uV
    abstol(I) = 1 pA
    temp = 27 C
    tnom = 27 C
    tempeffects = all
    gmindc = 1 pS
    rabsshort = 1 mOhm

Notice from spectre during DC analysis `dcOp', during Monte Carlo analysis `mc1'.
    Bad pivoting is found during DC analysis. Option dc_pivot_check=yes is recommended for possible improvement of convergence.


Maximum value achieved for any signal of each quantity: 
V: V(net2) = 3.3 V
I: I(V0:p) = 6.72 uA
Maximum value of each quantity, excluding Verilog-A modules or dangling current sources:
V: V(net1) = 1.6 V
I: I(V0:p) = 6.72 uA

Warning from spectre during check, during DC analysis `dcOp', during Monte Carlo analysis `mc1'.
    WARNING (CMI-2943): Parameter checks have been ignored because the valid value for parameter 'trise' could not be found in 'C1'.
    WARNING (CMI-2943): Parameter checks have been ignored because the valid value for parameter 'trise' could not be found in 'I0.R2.CM'.
    WARNING (CMI-2943): Parameter checks have been ignored because the valid value for parameter 'trise' could not be found in 'I0.R2.CS1'.
    WARNING (CMI-2943): Parameter checks have been ignored because the valid value for parameter 'trise' could not be found in 'I0.R2.CS0'.
    WARNING (CMI-2943): Parameter checks have been ignored because the valid value for parameter 'trise' could not be found in 'I0.C8<3>.C1'.
        Further occurrences of this warning will be suppressed.

Convergence achieved in 19 iterations.
DC simulation time: CPU = 5.489 ms, elapsed = 6.99496 ms.
Total time required for dc analysis `dcOp': CPU = 5.888 ms, elapsed = 7.39384 ms, util. = 79.6%.
Time accumulated: CPU = 3.43286 s, elapsed = 4.11367 s.
Peak resident memory used = 213 Mbytes.


Notice from spectre during Monte Carlo analysis `mc1'.
    34 warnings suppressed.

dcOpInfo: writing operating point information to rawfile.

Opening the PSF file ../psf/mc1_separate/019/dcOpInfo.info ...

************************************************
Transient Analysis `tran': time = (0 s -> 40 ms)
************************************************

Opening the PSF file ../psf/mc1_separate/019/tran.tran.tran ...

Notice from spectre during IC analysis, during transient analysis `tran', during Monte Carlo analysis `mc1'.
    Bad pivoting is found during DC analysis. Option dc_pivot_check=yes is recommended for possible improvement of convergence.
Warning from spectre during check, during IC analysis, during transient analysis `tran', during Monte Carlo analysis `mc1'.
    WARNING (CMI-2943): Parameter checks have been ignored because the valid value for parameter 'trise' could not be found in 'C1'.
    WARNING (CMI-2943): Parameter checks have been ignored because the valid value for parameter 'trise' could not be found in 'I0.R2.CM'.
    WARNING (CMI-2943): Parameter checks have been ignored because the valid value for parameter 'trise' could not be found in 'I0.R2.CS1'.
    WARNING (CMI-2943): Parameter checks have been ignored because the valid value for parameter 'trise' could not be found in 'I0.R2.CS0'.
    WARNING (CMI-2943): Parameter checks have been ignored because the valid value for parameter 'trise' could not be found in 'I0.C8<3>.C1'.
        Further occurrences of this warning will be suppressed.

Convergence achieved in 19 iterations.
DC simulation time: CPU = 2.765 ms, elapsed = 2.76589 ms.
Important parameter values:
    start = 0 s
    outputstart = 0 s
    stop = 40 ms
    step = 40 us
    maxstep = 400 us
    ic = all
    useprevic = no
    skipdc = no
    reltol = 10e-06
    abstol(V) = 1 uV
    abstol(I) = 1 pA
    temp = 27 C
    tnom = 27 C
    tempeffects = all
    errpreset = conservative
    method = gear2only
    lteratio = 10
    relref = alllocal
    cmin = 0 F
    gmin = 1 pS
    rabsshort = 1 mOhm


Notice from spectre during transient analysis `tran', during Monte Carlo analysis `mc1'.
    Multithreading is disabled due to the size of the design being too small.


Output and IC/nodeset summary:
                 save   8       (current)
                 save   83      (voltage)

    tran: time = 1.026 ms    (2.57 %), step = 48 us        (120 m%)
    tran: time = 3.04 ms      (7.6 %), step = 47.06 us     (118 m%)
    tran: time = 5.007 ms    (12.5 %), step = 49.79 us     (124 m%)
    tran: time = 7.02 ms     (17.5 %), step = 48.52 us     (121 m%)
    tran: time = 9.033 ms    (22.6 %), step = 47.47 us     (119 m%)
    tran: time = 11 ms       (27.5 %), step = 50 us        (125 m%)
    tran: time = 13.01 ms    (32.5 %), step = 49.09 us     (123 m%)
    tran: time = 15.03 ms    (37.6 %), step = 47.94 us     (120 m%)
    tran: time = 17.04 ms    (42.6 %), step = 47.02 us     (118 m%)
    tran: time = 19.01 ms    (47.5 %), step = 49.71 us     (124 m%)
    tran: time = 21.02 ms    (52.6 %), step = 48.46 us     (121 m%)
    tran: time = 23.03 ms    (57.6 %), step = 47.42 us     (119 m%)
    tran: time = 25 ms       (62.5 %), step = 50 us        (125 m%)
    tran: time = 27.01 ms    (67.5 %), step = 49.02 us     (123 m%)
    tran: time = 29.03 ms    (72.6 %), step = 47.87 us     (120 m%)
    tran: time = 31.04 ms    (77.6 %), step = 46.97 us     (117 m%)
    tran: time = 33.01 ms    (82.5 %), step = 49.62 us     (124 m%)
    tran: time = 35.02 ms    (87.6 %), step = 48.39 us     (121 m%)
    tran: time = 37.04 ms    (92.6 %), step = 47.36 us     (118 m%)
    tran: time = 39 ms       (97.5 %), step = 50 us        (125 m%)
Number of accepted tran steps =             851

Maximum value achieved for any signal of each quantity: 
V: V(net2) = 3.3 V
I: I(V0:p) = 6.72 uA
Maximum value of each quantity, excluding Verilog-A modules or dangling current sources:
V: V(vout_filt) = 1.613 V
I: I(V0:p) = 6.72 uA

~~~~~~~~~~~~~~~~~~~~~~~~~~~~~~~~~
Post-Transient Simulation Summary
~~~~~~~~~~~~~~~~~~~~~~~~~~~~~~~~~
   -   To further speed up simulation, consider
          add ++aps on command line
   -   Non-default settings that could significantly slow down simulation
          errpreset = conservative, default moderate
          reltol = 10e-06, default 100e-06 (conservative)
~~~~~~~~~~~~~~~~~~~~~~~~~~~~~~~~~


During simulation, the CPU load for active processors is :
         0 (31.2 %)      1 (15.6 %)      2 (4.3 %)       3 (33.0 %)
         4 (6.7 %)       5 (8.4 %)       6 (99.8 %)      7 (41.1 %)
         8 (5.6 %)       9 (5.7 %)      10 (4.2 %)      11 (5.4 %)
        12 (19.4 %)     13 (4.3 %)      14 (12.9 %)     15 (8.4 %)
        16 (14.5 %)     17 (6.0 %)      18 (55.3 %)     19 (99.6 %)
        20 (32.1 %)     21 (4.7 %)      22 (18.5 %)     23 (15.4 %)
        24 (100.0 %)    25 (12.0 %)     26 (36.6 %)     27 (2.4 %)
        28 (14.6 %)     29 (100.0 %)    30 (4.4 %)      31 (44.2 %)
        32 (4.7 %)      33 (11.1 %)     34 (66.4 %)     35 (6.6 %)
        36 (24.8 %)     37 (10.2 %)     38 (73.1 %)     39 (14.5 %)
        40 (100.0 %)    41 (7.2 %)      42 (13.6 %)     43 (4.7 %)
        44 (3.4 %)      45 (4.4 %)      46 (10.6 %)     47 (10.0 %)
        Total: 1231.8%
Initial condition solution time: CPU = 2.802 ms, elapsed = 2.80213 ms.
Intrinsic tran analysis time:    CPU = 499.664 ms, elapsed = 501.591 ms.
Total time required for tran analysis `tran': CPU = 504.514 ms, elapsed = 507.089 ms, util. = 99.5%.
Time accumulated: CPU = 3.94434 s, elapsed = 4.63051 s.
Peak resident memory used = 213 Mbytes.


Notice from spectre during transient analysis `tran', during Monte Carlo analysis `mc1'.
    34 warnings suppressed.

finalTimeOP: writing operating point information to rawfile.

Opening the PSF file ../psf/mc1_separate/019/finalTimeOP.info ...
modelParameter: writing model parameter values to rawfile.

Opening the PSF file ../psf/mc1_separate/019/modelParameter.info ...
element: writing instance parameter values to rawfile.

Opening the PSF file ../psf/mc1_separate/019/element.info ...
outputParameter: writing output parameter values to rawfile.

Opening the PSF file ../psf/mc1_separate/019/outputParameter.info ...
designParamVals: writing netlist parameters to rawfile.

Opening the PSFASCII file ../psf/mc1_separate/019/designParamVals.info ...
primitives: writing primitives to rawfile.

Opening the PSFASCII file ../psf/mc1_separate/019/primitives.info.primitives ...
subckts: writing subcircuits to rawfile.

Opening the PSFASCII file ../psf/mc1_separate/019/subckts.info.subckts ...
    mc1: iteration = 19          (41.7 %), step = 1            (8.33 %)
20  50.00% 

*****************************************************************************************
* 
* INFO: AMS_processOption = C35B4C3
* 
* INFO: Valid Modules  PIP VG5 HIRES
* 
*****************************************************************************************


******************
DC Analysis `dcOp'
******************

Opening the PSF file ../psf/mc1_separate/020/dcOp.dc ...
Important parameter values:
    reltol = 100e-06
    abstol(V) = 1 uV
    abstol(I) = 1 pA
    temp = 27 C
    tnom = 27 C
    tempeffects = all
    gmindc = 1 pS
    rabsshort = 1 mOhm

Notice from spectre during DC analysis `dcOp', during Monte Carlo analysis `mc1'.
    Bad pivoting is found during DC analysis. Option dc_pivot_check=yes is recommended for possible improvement of convergence.


Maximum value achieved for any signal of each quantity: 
V: V(net2) = 3.3 V
I: I(V0:p) = 6.285 uA
Maximum value of each quantity, excluding Verilog-A modules or dangling current sources:
V: V(net1) = 1.6 V
I: I(V0:p) = 6.285 uA

Warning from spectre during check, during DC analysis `dcOp', during Monte Carlo analysis `mc1'.
    WARNING (CMI-2943): Parameter checks have been ignored because the valid value for parameter 'trise' could not be found in 'C1'.
    WARNING (CMI-2943): Parameter checks have been ignored because the valid value for parameter 'trise' could not be found in 'I0.R2.CM'.
    WARNING (CMI-2943): Parameter checks have been ignored because the valid value for parameter 'trise' could not be found in 'I0.R2.CS1'.
    WARNING (CMI-2943): Parameter checks have been ignored because the valid value for parameter 'trise' could not be found in 'I0.R2.CS0'.
    WARNING (CMI-2943): Parameter checks have been ignored because the valid value for parameter 'trise' could not be found in 'I0.C8<3>.C1'.
        Further occurrences of this warning will be suppressed.

Convergence achieved in 19 iterations.
DC simulation time: CPU = 5.454 ms, elapsed = 6.69312 ms.
Total time required for dc analysis `dcOp': CPU = 5.832 ms, elapsed = 7.06887 ms, util. = 82.5%.
Time accumulated: CPU = 3.99167 s, elapsed = 4.68928 s.
Peak resident memory used = 213 Mbytes.


Notice from spectre during Monte Carlo analysis `mc1'.
    34 warnings suppressed.

dcOpInfo: writing operating point information to rawfile.

Opening the PSF file ../psf/mc1_separate/020/dcOpInfo.info ...

************************************************
Transient Analysis `tran': time = (0 s -> 40 ms)
************************************************

Opening the PSF file ../psf/mc1_separate/020/tran.tran.tran ...

Notice from spectre during IC analysis, during transient analysis `tran', during Monte Carlo analysis `mc1'.
    Bad pivoting is found during DC analysis. Option dc_pivot_check=yes is recommended for possible improvement of convergence.
Warning from spectre during check, during IC analysis, during transient analysis `tran', during Monte Carlo analysis `mc1'.
    WARNING (CMI-2943): Parameter checks have been ignored because the valid value for parameter 'trise' could not be found in 'C1'.
    WARNING (CMI-2943): Parameter checks have been ignored because the valid value for parameter 'trise' could not be found in 'I0.R2.CM'.
    WARNING (CMI-2943): Parameter checks have been ignored because the valid value for parameter 'trise' could not be found in 'I0.R2.CS1'.
    WARNING (CMI-2943): Parameter checks have been ignored because the valid value for parameter 'trise' could not be found in 'I0.R2.CS0'.
    WARNING (CMI-2943): Parameter checks have been ignored because the valid value for parameter 'trise' could not be found in 'I0.C8<3>.C1'.
        Further occurrences of this warning will be suppressed.

Convergence achieved in 19 iterations.
DC simulation time: CPU = 2.785 ms, elapsed = 2.78497 ms.
Important parameter values:
    start = 0 s
    outputstart = 0 s
    stop = 40 ms
    step = 40 us
    maxstep = 400 us
    ic = all
    useprevic = no
    skipdc = no
    reltol = 10e-06
    abstol(V) = 1 uV
    abstol(I) = 1 pA
    temp = 27 C
    tnom = 27 C
    tempeffects = all
    errpreset = conservative
    method = gear2only
    lteratio = 10
    relref = alllocal
    cmin = 0 F
    gmin = 1 pS
    rabsshort = 1 mOhm


Notice from spectre during transient analysis `tran', during Monte Carlo analysis `mc1'.
    Multithreading is disabled due to the size of the design being too small.


Output and IC/nodeset summary:
                 save   8       (current)
                 save   83      (voltage)

    tran: time = 1.021 ms    (2.55 %), step = 48.38 us     (121 m%)
    tran: time = 3.035 ms    (7.59 %), step = 47.36 us     (118 m%)
    tran: time = 5.002 ms    (12.5 %), step = 50 us        (125 m%)
    tran: time = 7.015 ms    (17.5 %), step = 48.92 us     (122 m%)
    tran: time = 9.029 ms    (22.6 %), step = 47.79 us     (119 m%)
    tran: time = 11.04 ms    (27.6 %), step = 46.9 us      (117 m%)
    tran: time = 13.01 ms    (32.5 %), step = 49.51 us     (124 m%)
    tran: time = 15.02 ms    (37.6 %), step = 48.29 us     (121 m%)
    tran: time = 17.04 ms    (42.6 %), step = 47.29 us     (118 m%)
    tran: time = 19 ms       (47.5 %), step = 50 us        (125 m%)
    tran: time = 21.02 ms    (52.5 %), step = 48.83 us     (122 m%)
    tran: time = 23.03 ms    (57.6 %), step = 47.71 us     (119 m%)
    tran: time = 25.04 ms    (62.6 %), step = 46.84 us     (117 m%)
    tran: time = 27.01 ms    (67.5 %), step = 49.4 us      (124 m%)
    tran: time = 29.02 ms    (72.6 %), step = 48.2 us      (121 m%)
    tran: time = 31.04 ms    (77.6 %), step = 47.22 us     (118 m%)
    tran: time = 33 ms       (82.5 %), step = 50 us        (125 m%)
    tran: time = 35.02 ms    (87.5 %), step = 48.73 us     (122 m%)
    tran: time = 37.03 ms    (92.6 %), step = 47.63 us     (119 m%)
    tran: time = 39.04 ms    (97.6 %), step = 46.78 us     (117 m%)
Number of accepted tran steps =             851

Maximum value achieved for any signal of each quantity: 
V: V(net2) = 3.3 V
I: I(V0:p) = 6.285 uA
Maximum value of each quantity, excluding Verilog-A modules or dangling current sources:
V: V(vout_filt) = 1.613 V
I: I(V0:p) = 6.285 uA

~~~~~~~~~~~~~~~~~~~~~~~~~~~~~~~~~
Post-Transient Simulation Summary
~~~~~~~~~~~~~~~~~~~~~~~~~~~~~~~~~
   -   To further speed up simulation, consider
          add ++aps on command line
   -   Non-default settings that could significantly slow down simulation
          errpreset = conservative, default moderate
          reltol = 10e-06, default 100e-06 (conservative)
~~~~~~~~~~~~~~~~~~~~~~~~~~~~~~~~~


During simulation, the CPU load for active processors is :
         0 (28.0 %)      1 (14.4 %)      2 (4.4 %)       3 (34.7 %)
         4 (6.1 %)       5 (7.5 %)       6 (99.8 %)      7 (47.3 %)
         8 (5.2 %)       9 (5.3 %)      10 (4.0 %)      11 (5.2 %)
        12 (20.2 %)     13 (5.4 %)      14 (13.6 %)     15 (8.3 %)
        16 (13.7 %)     17 (5.5 %)      18 (57.2 %)     19 (93.9 %)
        20 (39.1 %)     21 (4.5 %)      22 (17.6 %)     23 (13.7 %)
        24 (100.0 %)    25 (10.8 %)     26 (43.3 %)     27 (2.4 %)
        28 (13.2 %)     29 (100.0 %)    30 (13.7 %)     31 (40.4 %)
        32 (5.1 %)      33 (10.5 %)     34 (69.8 %)     35 (6.3 %)
        36 (22.3 %)     37 (11.2 %)     38 (65.5 %)     39 (23.9 %)
        40 (100.0 %)    41 (6.6 %)      42 (12.3 %)     43 (4.4 %)
        44 (3.4 %)      45 (4.7 %)      46 (9.9 %)      47 (20.4 %)
        Total: 1254.8%
Initial condition solution time: CPU = 2.819 ms, elapsed = 2.82001 ms.
Intrinsic tran analysis time:    CPU = 496.122 ms, elapsed = 497.771 ms.
Total time required for tran analysis `tran': CPU = 500.884 ms, elapsed = 503.196 ms, util. = 99.5%.
Time accumulated: CPU = 4.49952 s, elapsed = 5.20186 s.
Peak resident memory used = 213 Mbytes.


Notice from spectre during transient analysis `tran', during Monte Carlo analysis `mc1'.
    34 warnings suppressed.

finalTimeOP: writing operating point information to rawfile.

Opening the PSF file ../psf/mc1_separate/020/finalTimeOP.info ...
modelParameter: writing model parameter values to rawfile.

Opening the PSF file ../psf/mc1_separate/020/modelParameter.info ...
element: writing instance parameter values to rawfile.

Opening the PSF file ../psf/mc1_separate/020/element.info ...
outputParameter: writing output parameter values to rawfile.

Opening the PSF file ../psf/mc1_separate/020/outputParameter.info ...
designParamVals: writing netlist parameters to rawfile.

Opening the PSFASCII file ../psf/mc1_separate/020/designParamVals.info ...
primitives: writing primitives to rawfile.

Opening the PSFASCII file ../psf/mc1_separate/020/primitives.info.primitives ...
subckts: writing subcircuits to rawfile.

Opening the PSFASCII file ../psf/mc1_separate/020/subckts.info.subckts ...
    mc1: iteration = 20            (50 %), step = 1            (8.33 %)
21  58.33% 

*****************************************************************************************
* 
* INFO: AMS_processOption = C35B4C3
* 
* INFO: Valid Modules  PIP VG5 HIRES
* 
*****************************************************************************************


******************
DC Analysis `dcOp'
******************

Opening the PSF file ../psf/mc1_separate/021/dcOp.dc ...
Important parameter values:
    reltol = 100e-06
    abstol(V) = 1 uV
    abstol(I) = 1 pA
    temp = 27 C
    tnom = 27 C
    tempeffects = all
    gmindc = 1 pS
    rabsshort = 1 mOhm

Notice from spectre during DC analysis `dcOp', during Monte Carlo analysis `mc1'.
    Bad pivoting is found during DC analysis. Option dc_pivot_check=yes is recommended for possible improvement of convergence.


Maximum value achieved for any signal of each quantity: 
V: V(net2) = 3.3 V
I: I(V0:p) = 6.541 uA
Maximum value of each quantity, excluding Verilog-A modules or dangling current sources:
V: V(vout_filt) = 1.6 V
I: I(V0:p) = 6.541 uA

Warning from spectre during check, during DC analysis `dcOp', during Monte Carlo analysis `mc1'.
    WARNING (CMI-2943): Parameter checks have been ignored because the valid value for parameter 'trise' could not be found in 'C1'.
    WARNING (CMI-2943): Parameter checks have been ignored because the valid value for parameter 'trise' could not be found in 'I0.R2.CM'.
    WARNING (CMI-2943): Parameter checks have been ignored because the valid value for parameter 'trise' could not be found in 'I0.R2.CS1'.
    WARNING (CMI-2943): Parameter checks have been ignored because the valid value for parameter 'trise' could not be found in 'I0.R2.CS0'.
    WARNING (CMI-2943): Parameter checks have been ignored because the valid value for parameter 'trise' could not be found in 'I0.C8<3>.C1'.
        Further occurrences of this warning will be suppressed.

Convergence achieved in 16 iterations.
DC simulation time: CPU = 5.797 ms, elapsed = 7.21693 ms.
Total time required for dc analysis `dcOp': CPU = 6.28 ms, elapsed = 7.69806 ms, util. = 81.6%.
Time accumulated: CPU = 4.54768 s, elapsed = 5.2627 s.
Peak resident memory used = 213 Mbytes.


Notice from spectre during Monte Carlo analysis `mc1'.
    34 warnings suppressed.

dcOpInfo: writing operating point information to rawfile.

Opening the PSF file ../psf/mc1_separate/021/dcOpInfo.info ...

************************************************
Transient Analysis `tran': time = (0 s -> 40 ms)
************************************************

Opening the PSF file ../psf/mc1_separate/021/tran.tran.tran ...

Notice from spectre during IC analysis, during transient analysis `tran', during Monte Carlo analysis `mc1'.
    Bad pivoting is found during DC analysis. Option dc_pivot_check=yes is recommended for possible improvement of convergence.
Warning from spectre during check, during IC analysis, during transient analysis `tran', during Monte Carlo analysis `mc1'.
    WARNING (CMI-2943): Parameter checks have been ignored because the valid value for parameter 'trise' could not be found in 'C1'.
    WARNING (CMI-2943): Parameter checks have been ignored because the valid value for parameter 'trise' could not be found in 'I0.R2.CM'.
    WARNING (CMI-2943): Parameter checks have been ignored because the valid value for parameter 'trise' could not be found in 'I0.R2.CS1'.
    WARNING (CMI-2943): Parameter checks have been ignored because the valid value for parameter 'trise' could not be found in 'I0.R2.CS0'.
    WARNING (CMI-2943): Parameter checks have been ignored because the valid value for parameter 'trise' could not be found in 'I0.C8<3>.C1'.
        Further occurrences of this warning will be suppressed.

Convergence achieved in 16 iterations.
DC simulation time: CPU = 2.679 ms, elapsed = 2.67911 ms.
Important parameter values:
    start = 0 s
    outputstart = 0 s
    stop = 40 ms
    step = 40 us
    maxstep = 400 us
    ic = all
    useprevic = no
    skipdc = no
    reltol = 10e-06
    abstol(V) = 1 uV
    abstol(I) = 1 pA
    temp = 27 C
    tnom = 27 C
    tempeffects = all
    errpreset = conservative
    method = gear2only
    lteratio = 10
    relref = alllocal
    cmin = 0 F
    gmin = 1 pS
    rabsshort = 1 mOhm


Notice from spectre during transient analysis `tran', during Monte Carlo analysis `mc1'.
    Multithreading is disabled due to the size of the design being too small.


Output and IC/nodeset summary:
                 save   8       (current)
                 save   83      (voltage)

    tran: time = 1.023 ms    (2.56 %), step = 48.28 us     (121 m%)
    tran: time = 3.037 ms    (7.59 %), step = 47.27 us     (118 m%)
    tran: time = 5.004 ms    (12.5 %), step = 50 us        (125 m%)
    tran: time = 7.017 ms    (17.5 %), step = 48.78 us     (122 m%)
    tran: time = 9.031 ms    (22.6 %), step = 47.66 us     (119 m%)
    tran: time = 11.04 ms    (27.6 %), step = 46.8 us      (117 m%)
    tran: time = 13.01 ms    (32.5 %), step = 49.3 us      (123 m%)
    tran: time = 15.02 ms    (37.6 %), step = 48.11 us     (120 m%)
    tran: time = 17.04 ms    (42.6 %), step = 47.14 us     (118 m%)
    tran: time = 19.01 ms    (47.5 %), step = 49.89 us     (125 m%)
    tran: time = 21.02 ms    (52.5 %), step = 48.59 us     (121 m%)
    tran: time = 23.03 ms    (57.6 %), step = 47.52 us     (119 m%)
[...]
        Total: 1349.2%
Initial condition solution time: CPU = 2.967 ms, elapsed = 2.96998 ms.
Intrinsic tran analysis time:    CPU = 497.379 ms, elapsed = 499.124 ms.
Total time required for tran analysis `tran': CPU = 502.419 ms, elapsed = 504.813 ms, util. = 99.5%.
Time accumulated: CPU = 6.7411 s, elapsed = 7.51868 s.
Peak resident memory used = 213 Mbytes.


Notice from spectre during transient analysis `tran', during Monte Carlo analysis `mc1'.
    34 warnings suppressed.

finalTimeOP: writing operating point information to rawfile.

Opening the PSF file ../psf/mc1_separate/024/finalTimeOP.info ...
modelParameter: writing model parameter values to rawfile.

Opening the PSF file ../psf/mc1_separate/024/modelParameter.info ...
element: writing instance parameter values to rawfile.

Opening the PSF file ../psf/mc1_separate/024/element.info ...
outputParameter: writing output parameter values to rawfile.

Opening the PSF file ../psf/mc1_separate/024/outputParameter.info ...
designParamVals: writing netlist parameters to rawfile.

Opening the PSFASCII file ../psf/mc1_separate/024/designParamVals.info ...
primitives: writing primitives to rawfile.

Opening the PSFASCII file ../psf/mc1_separate/024/primitives.info.primitives ...
subckts: writing subcircuits to rawfile.

Opening the PSFASCII file ../psf/mc1_separate/024/subckts.info.subckts ...
    mc1: iteration = 24          (83.3 %), step = 1            (8.33 %)
25  91.67% 

*****************************************************************************************
* 
* INFO: AMS_processOption = C35B4C3
* 
* INFO: Valid Modules  PIP VG5 HIRES
* 
*****************************************************************************************


******************
DC Analysis `dcOp'
******************

Opening the PSF file ../psf/mc1_separate/025/dcOp.dc ...
Important parameter values:
    reltol = 100e-06
    abstol(V) = 1 uV
    abstol(I) = 1 pA
    temp = 27 C
    tnom = 27 C
    tempeffects = all
    gmindc = 1 pS
    rabsshort = 1 mOhm

Notice from spectre during DC analysis `dcOp', during Monte Carlo analysis `mc1'.
    Bad pivoting is found during DC analysis. Option dc_pivot_check=yes is recommended for possible improvement of convergence.


Maximum value achieved for any signal of each quantity: 
V: V(net2) = 3.3 V
I: I(V0:p) = 6.569 uA
Maximum value of each quantity, excluding Verilog-A modules or dangling current sources:
V: V(vout_filt) = 1.6 V
I: I(V0:p) = 6.569 uA

Warning from spectre during check, during DC analysis `dcOp', during Monte Carlo analysis `mc1'.
    WARNING (CMI-2943): Parameter checks have been ignored because the valid value for parameter 'trise' could not be found in 'C1'.
    WARNING (CMI-2943): Parameter checks have been ignored because the valid value for parameter 'trise' could not be found in 'I0.R2.CM'.
    WARNING (CMI-2943): Parameter checks have been ignored because the valid value for parameter 'trise' could not be found in 'I0.R2.CS1'.
    WARNING (CMI-2943): Parameter checks have been ignored because the valid value for parameter 'trise' could not be found in 'I0.R2.CS0'.
    WARNING (CMI-2943): Parameter checks have been ignored because the valid value for parameter 'trise' could not be found in 'I0.C8<3>.C1'.
        Further occurrences of this warning will be suppressed.

Convergence achieved in 21 iterations.
DC simulation time: CPU = 5.904 ms, elapsed = 7.47204 ms.
Total time required for dc analysis `dcOp': CPU = 6.46 ms, elapsed = 8.02684 ms, util. = 80.5%.
Time accumulated: CPU = 6.78975 s, elapsed = 7.58053 s.
Peak resident memory used = 213 Mbytes.


Notice from spectre during Monte Carlo analysis `mc1'.
    34 warnings suppressed.

dcOpInfo: writing operating point information to rawfile.

Opening the PSF file ../psf/mc1_separate/025/dcOpInfo.info ...

************************************************
Transient Analysis `tran': time = (0 s -> 40 ms)
************************************************

Opening the PSF file ../psf/mc1_separate/025/tran.tran.tran ...

Notice from spectre during IC analysis, during transient analysis `tran', during Monte Carlo analysis `mc1'.
    Bad pivoting is found during DC analysis. Option dc_pivot_check=yes is recommended for possible improvement of convergence.
Warning from spectre during check, during IC analysis, during transient analysis `tran', during Monte Carlo analysis `mc1'.
    WARNING (CMI-2943): Parameter checks have been ignored because the valid value for parameter 'trise' could not be found in 'C1'.
    WARNING (CMI-2943): Parameter checks have been ignored because the valid value for parameter 'trise' could not be found in 'I0.R2.CM'.
    WARNING (CMI-2943): Parameter checks have been ignored because the valid value for parameter 'trise' could not be found in 'I0.R2.CS1'.
    WARNING (CMI-2943): Parameter checks have been ignored because the valid value for parameter 'trise' could not be found in 'I0.R2.CS0'.
    WARNING (CMI-2943): Parameter checks have been ignored because the valid value for parameter 'trise' could not be found in 'I0.C8<3>.C1'.
        Further occurrences of this warning will be suppressed.

Convergence achieved in 21 iterations.
DC simulation time: CPU = 2.981 ms, elapsed = 2.98285 ms.
Important parameter values:
    start = 0 s
    outputstart = 0 s
    stop = 40 ms
    step = 40 us
    maxstep = 400 us
    ic = all
    useprevic = no
    skipdc = no
    reltol = 10e-06
    abstol(V) = 1 uV
    abstol(I) = 1 pA
    temp = 27 C
    tnom = 27 C
    tempeffects = all
    errpreset = conservative
    method = gear2only
    lteratio = 10
    relref = alllocal
    cmin = 0 F
    gmin = 1 pS
    rabsshort = 1 mOhm


Notice from spectre during transient analysis `tran', during Monte Carlo analysis `mc1'.
    Multithreading is disabled due to the size of the design being too small.


Output and IC/nodeset summary:
                 save   8       (current)
                 save   83      (voltage)

    tran: time = 1.021 ms    (2.55 %), step = 48.41 us     (121 m%)
    tran: time = 3.035 ms    (7.59 %), step = 47.38 us     (118 m%)
    tran: time = 5.002 ms    (12.5 %), step = 50 us        (125 m%)
    tran: time = 7.015 ms    (17.5 %), step = 48.94 us     (122 m%)
    tran: time = 9.029 ms    (22.6 %), step = 47.8 us      (120 m%)
    tran: time = 11.04 ms    (27.6 %), step = 46.91 us     (117 m%)
    tran: time = 13.01 ms    (32.5 %), step = 49.51 us     (124 m%)
    tran: time = 15.02 ms    (37.6 %), step = 48.29 us     (121 m%)
    tran: time = 17.04 ms    (42.6 %), step = 47.28 us     (118 m%)
    tran: time = 19 ms       (47.5 %), step = 50 us        (125 m%)
    tran: time = 21.02 ms    (52.5 %), step = 48.81 us     (122 m%)
    tran: time = 23.03 ms    (57.6 %), step = 47.7 us      (119 m%)
    tran: time = 25.04 ms    (62.6 %), step = 46.83 us     (117 m%)
    tran: time = 27.01 ms    (67.5 %), step = 49.37 us     (123 m%)
    tran: time = 29.02 ms    (72.6 %), step = 48.17 us     (120 m%)
    tran: time = 31.04 ms    (77.6 %), step = 47.19 us     (118 m%)
    tran: time = 33 ms       (82.5 %), step = 50 us        (125 m%)
    tran: time = 35.02 ms    (87.5 %), step = 48.68 us     (122 m%)
    tran: time = 37.03 ms    (92.6 %), step = 47.59 us     (119 m%)
    tran: time = 39.05 ms    (97.6 %), step = 46.75 us     (117 m%)
Number of accepted tran steps =             851

Maximum value achieved for any signal of each quantity: 
V: V(net2) = 3.3 V
I: I(V0:p) = 6.569 uA
Maximum value of each quantity, excluding Verilog-A modules or dangling current sources:
V: V(vout_filt) = 1.614 V
I: I(V0:p) = 6.569 uA

~~~~~~~~~~~~~~~~~~~~~~~~~~~~~~~~~
Post-Transient Simulation Summary
~~~~~~~~~~~~~~~~~~~~~~~~~~~~~~~~~
   -   To further speed up simulation, consider
          add ++aps on command line
   -   Non-default settings that could significantly slow down simulation
          errpreset = conservative, default moderate
          reltol = 10e-06, default 100e-06 (conservative)
~~~~~~~~~~~~~~~~~~~~~~~~~~~~~~~~~


During simulation, the CPU load for active processors is :
         0 (20.5 %)      1 (11.7 %)      2 (5.2 %)       3 (24.5 %)
         4 (6.7 %)       5 (6.7 %)       6 (99.8 %)      7 (54.2 %)
         8 (17.3 %)      9 (4.9 %)      10 (12.1 %)     11 (12.8 %)
        12 (15.4 %)     13 (5.6 %)      14 (13.2 %)     15 (33.7 %)
        16 (14.5 %)     17 (4.6 %)      18 (46.8 %)     19 (93.6 %)
        20 (45.8 %)     21 (10.1 %)     22 (14.4 %)     23 (16.5 %)
        24 (99.9 %)     25 (28.4 %)     26 (33.8 %)     27 (1.8 %)
        28 (13.1 %)     29 (99.9 %)     30 (33.4 %)     31 (27.1 %)
        32 (4.9 %)      33 (7.7 %)      34 (70.0 %)     35 (11.2 %)
        36 (24.9 %)     37 (12.5 %)     38 (46.6 %)     39 (50.4 %)
        40 (100.0 %)    41 (11.5 %)     42 (10.5 %)     43 (5.7 %)
        44 (3.2 %)      45 (4.3 %)      46 (31.8 %)     47 (18.4 %)
        Total: 1341.5%
Initial condition solution time: CPU = 3.036 ms, elapsed = 3.03817 ms.
Intrinsic tran analysis time:    CPU = 496.903 ms, elapsed = 498.751 ms.
Total time required for tran analysis `tran': CPU = 501.711 ms, elapsed = 504.153 ms, util. = 99.5%.
Time accumulated: CPU = 7.29833 s, elapsed = 8.09446 s.
Peak resident memory used = 213 Mbytes.


Notice from spectre during transient analysis `tran', during Monte Carlo analysis `mc1'.
    34 warnings suppressed.

finalTimeOP: writing operating point information to rawfile.

Opening the PSF file ../psf/mc1_separate/025/finalTimeOP.info ...
modelParameter: writing model parameter values to rawfile.

Opening the PSF file ../psf/mc1_separate/025/modelParameter.info ...
element: writing instance parameter values to rawfile.

Opening the PSF file ../psf/mc1_separate/025/element.info ...
outputParameter: writing output parameter values to rawfile.

Opening the PSF file ../psf/mc1_separate/025/outputParameter.info ...
designParamVals: writing netlist parameters to rawfile.

Opening the PSFASCII file ../psf/mc1_separate/025/designParamVals.info ...
primitives: writing primitives to rawfile.

Opening the PSFASCII file ../psf/mc1_separate/025/primitives.info.primitives ...
subckts: writing subcircuits to rawfile.

Opening the PSFASCII file ../psf/mc1_separate/025/subckts.info.subckts ...
    mc1: iteration = 25          (91.7 %), step = 1            (8.33 %)
26 100.00% 

*****************************************************************************************
* 
* INFO: AMS_processOption = C35B4C3
* 
* INFO: Valid Modules  PIP VG5 HIRES
* 
*****************************************************************************************


******************
DC Analysis `dcOp'
******************

Opening the PSF file ../psf/mc1_separate/026/dcOp.dc ...
Important parameter values:
    reltol = 100e-06
    abstol(V) = 1 uV
    abstol(I) = 1 pA
    temp = 27 C
    tnom = 27 C
    tempeffects = all
    gmindc = 1 pS
    rabsshort = 1 mOhm

Notice from spectre during DC analysis `dcOp', during Monte Carlo analysis `mc1'.
    Bad pivoting is found during DC analysis. Option dc_pivot_check=yes is recommended for possible improvement of convergence.


Maximum value achieved for any signal of each quantity: 
V: V(net2) = 3.3 V
I: I(V0:p) = 6.432 uA
Maximum value of each quantity, excluding Verilog-A modules or dangling current sources:
V: V(vout_filt) = 1.6 V
I: I(V0:p) = 6.432 uA

Warning from spectre during check, during DC analysis `dcOp', during Monte Carlo analysis `mc1'.
    WARNING (CMI-2943): Parameter checks have been ignored because the valid value for parameter 'trise' could not be found in 'C1'.
    WARNING (CMI-2943): Parameter checks have been ignored because the valid value for parameter 'trise' could not be found in 'I0.R2.CM'.
    WARNING (CMI-2943): Parameter checks have been ignored because the valid value for parameter 'trise' could not be found in 'I0.R2.CS1'.
    WARNING (CMI-2943): Parameter checks have been ignored because the valid value for parameter 'trise' could not be found in 'I0.R2.CS0'.
    WARNING (CMI-2943): Parameter checks have been ignored because the valid value for parameter 'trise' could not be found in 'I0.C8<3>.C1'.
        Further occurrences of this warning will be suppressed.

Convergence achieved in 19 iterations.
DC simulation time: CPU = 5.193 ms, elapsed = 6.75392 ms.
Total time required for dc analysis `dcOp': CPU = 5.527 ms, elapsed = 7.08604 ms, util. = 78%.
Time accumulated: CPU = 7.346 s, elapsed = 8.15909 s.
Peak resident memory used = 213 Mbytes.


Notice from spectre during Monte Carlo analysis `mc1'.
    34 warnings suppressed.

dcOpInfo: writing operating point information to rawfile.

Opening the PSF file ../psf/mc1_separate/026/dcOpInfo.info ...

************************************************
Transient Analysis `tran': time = (0 s -> 40 ms)
************************************************

Opening the PSF file ../psf/mc1_separate/026/tran.tran.tran ...

Notice from spectre during IC analysis, during transient analysis `tran', during Monte Carlo analysis `mc1'.
    Bad pivoting is found during DC analysis. Option dc_pivot_check=yes is recommended for possible improvement of convergence.
Warning from spectre during check, during IC analysis, during transient analysis `tran', during Monte Carlo analysis `mc1'.
    WARNING (CMI-2943): Parameter checks have been ignored because the valid value for parameter 'trise' could not be found in 'C1'.
    WARNING (CMI-2943): Parameter checks have been ignored because the valid value for parameter 'trise' could not be found in 'I0.R2.CM'.
    WARNING (CMI-2943): Parameter checks have been ignored because the valid value for parameter 'trise' could not be found in 'I0.R2.CS1'.
    WARNING (CMI-2943): Parameter checks have been ignored because the valid value for parameter 'trise' could not be found in 'I0.R2.CS0'.
    WARNING (CMI-2943): Parameter checks have been ignored because the valid value for parameter 'trise' could not be found in 'I0.C8<3>.C1'.
        Further occurrences of this warning will be suppressed.

Convergence achieved in 19 iterations.
DC simulation time: CPU = 2.78 ms, elapsed = 2.78187 ms.
Important parameter values:
    start = 0 s
    outputstart = 0 s
    stop = 40 ms
    step = 40 us
    maxstep = 400 us
    ic = all
    useprevic = no
    skipdc = no
    reltol = 10e-06
    abstol(V) = 1 uV
    abstol(I) = 1 pA
    temp = 27 C
    tnom = 27 C
    tempeffects = all
    errpreset = conservative
    method = gear2only
    lteratio = 10
    relref = alllocal
    cmin = 0 F
    gmin = 1 pS
    rabsshort = 1 mOhm


Notice from spectre during transient analysis `tran', during Monte Carlo analysis `mc1'.
    Multithreading is disabled due to the size of the design being too small.


Output and IC/nodeset summary:
                 save   8       (current)
                 save   83      (voltage)

    tran: time = 1.021 ms    (2.55 %), step = 48.42 us     (121 m%)
    tran: time = 3.035 ms    (7.59 %), step = 47.38 us     (118 m%)
    tran: time = 5.002 ms    (12.5 %), step = 50 us        (125 m%)
    tran: time = 7.015 ms    (17.5 %), step = 48.93 us     (122 m%)
    tran: time = 9.029 ms    (22.6 %), step = 47.78 us     (119 m%)
    tran: time = 11.04 ms    (27.6 %), step = 46.89 us     (117 m%)
    tran: time = 13.01 ms    (32.5 %), step = 49.47 us     (124 m%)
    tran: time = 15.02 ms    (37.6 %), step = 48.24 us     (121 m%)
    tran: time = 17.04 ms    (42.6 %), step = 47.24 us     (118 m%)
    tran: time = 19 ms       (47.5 %), step = 50 us        (125 m%)
    tran: time = 21.02 ms    (52.5 %), step = 48.74 us     (122 m%)
    tran: time = 23.03 ms    (57.6 %), step = 47.63 us     (119 m%)
    tran: time = 25.04 ms    (62.6 %), step = 46.77 us     (117 m%)
    tran: time = 27.01 ms    (67.5 %), step = 49.26 us     (123 m%)
    tran: time = 29.03 ms    (72.6 %), step = 48.07 us     (120 m%)
    tran: time = 31.04 ms    (77.6 %), step = 47.11 us     (118 m%)
    tran: time = 33.01 ms    (82.5 %), step = 49.85 us     (125 m%)
    tran: time = 35.02 ms    (87.5 %), step = 48.56 us     (121 m%)
    tran: time = 37.03 ms    (92.6 %), step = 47.49 us     (119 m%)
    tran: time = 39 ms       (97.5 %), step = 50 us        (125 m%)
Number of accepted tran steps =             851

Maximum value achieved for any signal of each quantity: 
V: V(net2) = 3.3 V
I: I(V0:p) = 6.432 uA
Maximum value of each quantity, excluding Verilog-A modules or dangling current sources:
V: V(vout_filt) = 1.614 V
I: I(V0:p) = 6.432 uA

~~~~~~~~~~~~~~~~~~~~~~~~~~~~~~~~~
Post-Transient Simulation Summary
~~~~~~~~~~~~~~~~~~~~~~~~~~~~~~~~~
   -   To further speed up simulation, consider
          add ++aps on command line
   -   Non-default settings that could significantly slow down simulation
          errpreset = conservative, default moderate
          reltol = 10e-06, default 100e-06 (conservative)
~~~~~~~~~~~~~~~~~~~~~~~~~~~~~~~~~


During simulation, the CPU load for active processors is :
         0 (19.5 %)      1 (11.1 %)      2 (5.0 %)       3 (23.1 %)
         4 (6.4 %)       5 (6.6 %)       6 (99.8 %)      7 (50.7 %)
         8 (16.4 %)      9 (4.8 %)      10 (11.5 %)     11 (11.9 %)
        12 (14.8 %)     13 (5.7 %)      14 (13.6 %)     15 (36.3 %)
        16 (13.9 %)     17 (4.3 %)      18 (43.8 %)     19 (89.7 %)
        20 (42.9 %)     21 (16.1 %)     22 (16.4 %)     23 (17.1 %)
        24 (99.9 %)     25 (30.0 %)     26 (32.9 %)     27 (2.1 %)
        28 (19.0 %)     29 (99.2 %)     30 (31.4 %)     31 (29.9 %)
        32 (4.9 %)      33 (7.3 %)      34 (65.6 %)     35 (10.6 %)
        36 (27.5 %)     37 (13.3 %)     38 (44.2 %)     39 (47.2 %)
        40 (100.0 %)    41 (11.0 %)     42 (10.3 %)     43 (5.6 %)
        44 (8.9 %)      45 (5.0 %)      46 (29.8 %)     47 (18.0 %)
        Total: 1335.0%
Initial condition solution time: CPU = 2.814 ms, elapsed = 2.8162 ms.
Intrinsic tran analysis time:    CPU = 491.477 ms, elapsed = 493.34 ms.
Total time required for tran analysis `tran': CPU = 496.118 ms, elapsed = 498.552 ms, util. = 99.5%.
Time accumulated: CPU = 7.8488 s, elapsed = 8.66689 s.
Peak resident memory used = 213 Mbytes.


Notice from spectre during transient analysis `tran', during Monte Carlo analysis `mc1'.
    34 warnings suppressed.

finalTimeOP: writing operating point information to rawfile.

Opening the PSF file ../psf/mc1_separate/026/finalTimeOP.info ...
modelParameter: writing model parameter values to rawfile.

Opening the PSF file ../psf/mc1_separate/026/modelParameter.info ...
element: writing instance parameter values to rawfile.

Opening the PSF file ../psf/mc1_separate/026/element.info ...
outputParameter: writing output parameter values to rawfile.

Opening the PSF file ../psf/mc1_separate/026/outputParameter.info ...
designParamVals: writing netlist parameters to rawfile.

Opening the PSFASCII file ../psf/mc1_separate/026/designParamVals.info ...
primitives: writing primitives to rawfile.

Opening the PSFASCII file ../psf/mc1_separate/026/primitives.info.primitives ...
subckts: writing subcircuits to rawfile.

Opening the PSFASCII file ../psf/mc1_separate/026/subckts.info.subckts ...
    mc1: iteration = 26           (100 %), step = 1            (8.33 %)
Total time required for montecarlo analysis `mc1': CPU = 7.39234 s, elapsed = 7.65112 s, util. = 96.6%.
Time accumulated: CPU = 7.87664 s, elapsed = 8.70893 s.
Peak resident memory used = 213 Mbytes.

Licensing Information:
Lic Summary:
[10:46:07.037530] Cdslmd servers:3000@lic08.ug.kth.se:29000@lic06.ug.kth.se
[10:46:07.561858] Feature usage summary:
[10:46:07.561859] Virtuoso_Multi_mode_Simulation


Aggregate audit (10:46:07 AM, Thur Apr 16, 2026):
Time used: CPU = 7.89 s, elapsed = 8.73 s, util. = 90.5%.
Time spent in licensing: elapsed = 57.4 ms.
Peak memory used = 214 Mbytes.
Simulation started at: 10:45:58 AM, Thur Apr 16, 2026, ended at: 10:46:07 AM, Thur Apr 16, 2026, with elapsed time (wall clock): 8.73 s.
spectre completes with 0 errors, 147 warnings, and 72 notices.
