
Spectre (R) Circuit Simulator
Version 24.1.0.288.isr5 64bit -- 3 Apr 2025
Copyright (C) 1989-2025 Cadence Design Systems, Inc. All rights reserved worldwide. Cadence and Spectre are registered trademarks of Cadence Design Systems, Inc. All others are the property of their respective holders.

Includes RSA BSAFE(R) Cryptographic or Security Protocol Software from RSA Security, Inc.

User: davidevi   Host: il2244vt26_davidevi   HostID: 11AC2C00   PID: 994559
Memory  available: 3.0270 TB  physical: 3.2467 TB
Linux   : Rocky Linux release 8.10 (Green Obsidian)
CPU Type: Intel(R) Xeon(R) CPU E7-8857 v2 @ 3.00GHz
        Socket: Processors [Frequency]
        0:       0 [1200.0],  1 [2999.9],  2 [3600.0],  3 [2700.0],  4 [2999.9]
                 5 [1200.0],  6 [2999.9],  7 [2400.0],  8 [2400.0],  9 [2600.0]
                10 [2999.9], 11 [2999.9]
        1:      12 [3600.0], 13 [3600.0], 14 [3399.9], 15 [3399.9], 16 [3600.0]
                17 [3600.0], 18 [3600.0], 19 [3399.9], 20 [3600.0], 21 [3600.0]
                22 [3600.0], 23 [3399.9]
        2:      24 [3399.9], 25 [3399.9], 26 [3600.0], 27 [3399.9], 28 [3327.6]
                29 [3399.9], 30 [3600.0], 31 [3600.0], 32 [3600.0], 33 [3600.0]
                34 [3399.9], 35 [3600.0]
        3:      36 [3391.7], 37 [3387.4], 38 [3600.0], 39 [3600.0], 40 [3372.2]
                41 [3391.3], 42 [3388.2], 43 [3391.7], 44 [3600.0], 45 [3600.0]
                46 [3600.0], 47 [3600.0]
        
System load averages (1min, 5min, 15min) : 21.9 %, 18.9 %, 20.1 %
HPC is enabled


Simulating `input.scs' on il2244vt26_davidevi at 1:18:16 PM, Wed Apr 15, 2026 (process id: 994559).
Current working directory: /home/davidevi/Desktop/myproject/Sim/VGA/VGA_1_pss_tb/maestro/results/maestro/MonteCarlo.5/46/MC/groupRunDataDir/netlist
Command line:
    /opt/tools/cadence/installs/SPECTRE241/tools/bin/spectre -64  \
        input.scs +escchars +log ../psf/spectre.out -format psfbin  \
        +rtsf -raw ../psf +preset=cx +mt +lqtimeout 900 -maxw 5 -maxn 5  \
        +param /opt/pdk/ams/410/spectre/ams_range.lmts -env ade  \
        +adespetkn=0001089D13A302B663E41FB550AF0DF415A679A322D5069144BF588C12F604E07EF416DC01A319B562BB63D34ADC0C9545A3588C1F981C8560A1408769D54F9242FE79D15D9175FF34986BDD0AF002BA50FD7FD707E002A700AC1C8404FE5AE30EA979D118F874D3349879D118F874D33498100E88EFE4C45D470000367C  \
        -ahdllibdir  \
        /home/davidevi/Desktop/myproject/Sim/VGA/VGA_1_pss_tb/maestro/results/maestro/MonteCarlo.5/sharedData/lscsJob440/ahdl/input.ahdlSimDB  \
        +logstatus

Simulation Id: xFo6udT9hVJlO0vf
Licensing Information:
[13:18:16.121762] Configured Lic search path (24.01-s002): 3000@lic08.ug.kth.se:29000@lic06.ug.kth.se

Licensing Information:
[13:18:16.381578] Periodic Lic check successful

Loading /opt/tools/cadence/installs/SPECTRE241/tools.lnx86/cmi/lib/64bit/5.0/libinfineon_sh.so ...
Loading /opt/tools/cadence/installs/SPECTRE241/tools.lnx86/cmi/lib/64bit/5.0/libphilips_I_sh.so ...
Loading /opt/tools/cadence/installs/SPECTRE241/tools.lnx86/cmi/lib/64bit/5.0/libphilips_sh.so ...
Loading /opt/tools/cadence/installs/SPECTRE241/tools.lnx86/cmi/lib/64bit/5.0/libsparam_sh.so ...
Loading /opt/tools/cadence/installs/SPECTRE241/tools.lnx86/cmi/lib/64bit/5.0/libstmodels_sh.so ...

Warning from spectre.
    WARNING (SPECTRE-691): This CPU processor does not support x86 advanced vector extensions instructions. This may affect math operations and slow down the simulation.

Reading file:  /home/davidevi/Desktop/myproject/Sim/VGA/VGA_1_pss_tb/maestro/results/maestro/MonteCarlo.5/46/MC/groupRunDataDir/netlist/input.scs

Notice from spectre during circuit read-in.
    Pre_Configuration file used: /opt/tools/cadence/installs/SPECTRE241/tools.lnx86/spectre/etc/configs/preset.precfg
    Configuration file used: `/opt/tools/cadence/installs/SPECTRE241/tools.lnx86/spectre/etc/configs/preset.cfg'.

Reading file:  /opt/pdk/ams/410/spectre/ams_range.lmts

Warning from spectre during read of parameter soft limits file `/opt/pdk/ams/410/spectre/ams_range.lmts', during circuit read-in.
    WARNING (SPECTRE-8360): line 1511: `ac' is an undefined primitive device.
    WARNING (SPECTRE-8360): line 1512: `ac' is an undefined primitive device.
    WARNING (SPECTRE-8360): line 1513: `ac' is an undefined primitive device.
    WARNING (SPECTRE-8360): line 1514: `ac' is an undefined primitive device.
    WARNING (SPECTRE-8360): line 1515: `ac' is an undefined primitive device.
        Further occurrences of this warning will be suppressed.

Reading file:  /opt/tools/cadence/installs/SPECTRE241/tools.lnx86/spectre/etc/configs/spectre.cfg
Reading file:  /opt/tools/cadence/installs/SPECTRE241/tools.lnx86/spectre/etc/configs/preset.precfg
Reading file:  /opt/pdk/ams/410/spectre/c35/soac/soac.scs
Reading file:  /opt/pdk/ams/410/spectre/c35/processOption.scs
Reading file:  /opt/pdk/ams/410/spectre/c35/process.scs
Reading file:  /opt/pdk/ams/410/spectre/c35/processOption/C35B4C3.scs
Reading file:  /opt/pdk/ams/410/spectre/c35/cmos53.scs
Reading file:  /opt/pdk/ams/410/spectre/c35/res.scs
Reading file:  /opt/pdk/ams/410/spectre/c35/cap.scs
Reading file:  /opt/pdk/ams/410/spectre/c35/bip.scs
Reading file:  /opt/pdk/ams/410/spectre/c35/ind.scs
Reading file:  /opt/pdk/ams/410/spectre/c35/esddiode.scs
Reading link:  /home/davidevi/Desktop/myproject/Sim/VGA/VGA_1_pss_tb/maestro/results/maestro/MonteCarlo.5/46/MC/groupRunDataDir/netlist/netlist
Reading file:  /home/davidevi/Desktop/myproject/Sim/VGA/VGA_1_pss_tb/maestro/results/maestro/MonteCarlo.5/psf/MC/netlist/netlist
Reading file:  /opt/tools/cadence/installs/SPECTRE241/tools.lnx86/spectre/etc/configs/preset.cfg
Time for NDB Parsing: CPU = 194.333 ms, elapsed = 341.931 ms.
Time accumulated: CPU = 388.519 ms, elapsed = 341.934 ms.
Peak resident memory used = 180 Mbytes.

Reading link:  /opt/tools/cadence/installs/SPECTRE241/tools.lnx86/spectre/etc/ahdl/discipline.h
Reading file:  /opt/tools/cadence/installs/SPECTRE241/tools.lnx86/spectre/etc/ahdl/disciplines.vams
Reading link:  /opt/tools/cadence/installs/SPECTRE241/tools.lnx86/spectre/etc/ahdl/constants.h
Reading file:  /opt/tools/cadence/installs/SPECTRE241/tools.lnx86/spectre/etc/ahdl/constants.vams

Warning from spectre during AHDL read-in.
    WARNING (VACOMP-2435): The environment variable CDS_AHDLCMI_ENABLE is no longer supported. Therefore, the simulator will use the default compiled C code flow.

Created directory /home/davidevi/Desktop/myproject/Sim/VGA/VGA_1_pss_tb/maestro/results/maestro/MonteCarlo.5/sharedData/lscsJob440/ahdl/input.ahdlSimDB/input.ahdlSimDB/ (775)
Created directory /home/davidevi/Desktop/myproject/Sim/VGA/VGA_1_pss_tb/maestro/results/maestro/MonteCarlo.5/sharedData/lscsJob440/ahdl/input.ahdlSimDB/input.ahdlSimDB//bsource_fcab9d.va.bsource_fcab9d.ahdlcmi/ (775)
Reading file:  /home/davidevi/Desktop/myproject/Sim/ECG_IA/ecg_vga_tb/adexl/results/data/MonteCarlo.3/sharedData/Job173/ahdl/input.ahdlSimDB/input.ahdlSimDB/bsource_fcab9d.va.bsource_fcab9d.ahdlcmi/Linux-64/obj/optimize/5.0/libahdlcmi_bsource_fcab9d.so
Created directory /home/davidevi/Desktop/myproject/Sim/VGA/VGA_1_pss_tb/maestro/results/maestro/MonteCarlo.5/sharedData/lscsJob440/ahdl/input.ahdlSimDB/input.ahdlSimDB//bsource_fcab9d.va.bsource_fcab9d.ahdlcmi/Linux-64/obj/optimize/5.0 
Copying files from directory /home/davidevi/Desktop/myproject/Sim/ECG_IA/ecg_vga_tb/adexl/results/data/MonteCarlo.3/sharedData/Job173/ahdl/input.ahdlSimDB/input.ahdlSimDB/bsource_fcab9d.va.bsource_fcab9d.ahdlcmi/Linux-64/ to directory /home/davidevi/Desktop/myproject/Sim/VGA/VGA_1_pss_tb/maestro/results/maestro/MonteCarlo.5/sharedData/lscsJob440/ahdl/input.ahdlSimDB/input.ahdlSimDB//bsource_fcab9d.va.bsource_fcab9d.ahdlcmi/Linux-64/
Finished copying files from /home/davidevi/Desktop/myproject/Sim/ECG_IA/ecg_vga_tb/adexl/results/data/MonteCarlo.3/sharedData/Job173/ahdl/input.ahdlSimDB/input.ahdlSimDB/bsource_fcab9d.va.bsource_fcab9d.ahdlcmi/Linux-64/ to /home/davidevi/Desktop/myproject/Sim/VGA/VGA_1_pss_tb/maestro/results/maestro/MonteCarlo.5/sharedData/lscsJob440/ahdl/input.ahdlSimDB/input.ahdlSimDB//bsource_fcab9d.va.bsource_fcab9d.ahdlcmi/Linux-64/.
The simulator has reused the existing Verilog-A libraries for this simulation run. If you do not want to use these libraries, set the 'CDS_AHDL_REUSE_LIB' environment variable to 'NO' and rerun the simulation.
Existing shared object for module bsource_fcab9d is up to date.
Installed compiled interface for bsource_fcab9d.

Warning from spectre during hierarchy flattening.
    WARNING (SFE-3016): The floating node net6 is removed.

Time for Elaboration: CPU = 123.84 ms, elapsed = 160.624 ms.
Time accumulated: CPU = 512.53 ms, elapsed = 502.728 ms.
Peak resident memory used = 197 Mbytes.


Notice from spectre during hierarchy flattening.
    The value 'psf' specified for the 'checklimitdest' option will no longer be supported in future releases. Use 'spectre -h' to see other recommended values for the 'checklimitdest' option.


*****************************************************************************************
* 
* INFO: AMS_processOption = C35B4C3
* 
* INFO: Valid Modules  PIP VG5 HIRES
* 
*****************************************************************************************


Time for EDB Visiting: CPU = 7.389 ms, elapsed = 7.96103 ms.
Time accumulated: CPU = 520.031 ms, elapsed = 510.8 ms.
Peak resident memory used = 199 Mbytes.

Loading /opt/tools/cadence/installs/SPECTRE241/tools.lnx86/mdl/lib/64bit/libSpectreEH_sh.so ...

Warning from spectre during initial setup.
    WARNING (SPECTRE-17607): Assert `SOAC_rpolyh_vminuspsub' is ignored because it contains an expression which is invalid or not supported by native evaluator. 
    WARNING (SPECTRE-17607): Assert `SOAC_rpolyh_vpluspsub' is ignored because it contains an expression which is invalid or not supported by native evaluator. 
    WARNING (SPECTRE-16460): SOAC_cvarm_vspsub:Specified subcircuit master `cvarm' was not found.
    WARNING (SPECTRE-16462): SOAC_cvarm_vspsub:Error in specification of subcircuit master. Assert is ignored.
    WARNING (SPECTRE-16460): SOAC_cvarm_vbs:Specified subcircuit master `cvarm' was not found.
    WARNING (SPECTRE-16462): SOAC_cvarm_vbs:Error in specification of subcircuit master. Assert is ignored.
    WARNING (SPECTRE-16460): SOAC_cvarm_vgb:Specified subcircuit master `cvarm' was not found.
    WARNING (SPECTRE-16462): SOAC_cvarm_vgb:Error in specification of subcircuit master. Assert is ignored.
    WARNING (SPECTRE-16460): SOAC_cvart_vspsub:Specified subcircuit master `cvart' was not found.
    WARNING (SPECTRE-16462): SOAC_cvart_vspsub:Error in specification of subcircuit master. Assert is ignored.
    WARNING (SPECTRE-16460): SOAC_cvart_vbs:Specified subcircuit master `cvart' was not found.
        Further occurrences of this warning will be suppressed.
    WARNING (SPECTRE-16462): SOAC_cvart_vbs:Error in specification of subcircuit master. Assert is ignored.
        Further occurrences of this warning will be suppressed.
    WARNING (SPECTRE-17607): Assert `SOAC_cpoly_vminuspsub' is ignored because it contains an expression which is invalid or not supported by native evaluator. 
    WARNING (SPECTRE-17607): Assert `SOAC_cpoly_vpluspsub' is ignored because it contains an expression which is invalid or not supported by native evaluator. 
    WARNING (SPECTRE-17607): Assert `SOAC_modp_vbpsub' is ignored because it contains an expression which is invalid or not supported by native evaluator. 
        Further occurrences of this warning will be suppressed.
Notice from spectre during initial setup.
    Multithreading is disabled due to the size of the design being too small.


Netlist title:
        // Point Netlist Generated on: Apr 15 13:18:11 2026


Warning from spectre during initial setup.
    WARNING (SPECTRE-592): Following parameters are disabled because they are ignored or redefined in Spectre X:
        
        
        PSS Parameters:
          errpreset


Global user options:
         psfversion = 1.4.0
               temp = 27
           homotopy = 5
              limit = delta
         compatible = spice2
               gmin = 1e-12
             rforce = 1
           maxnotes = 5
           maxwarns = 5
             digits = 5
               cols = 80
             pivrel = 0.001
           sensfile = ../psf/sens.output
     checklimitdest = psf
     enable_pre_ver = yes
      ignorezerovar = yes
               save = allpub
               tnom = 27
             scalem = 1
              scale = 1

Scoped user options:

Circuit inventory:
              nodes 33
            bsim3v3 35    
     bsource_fcab9d 2     
          capacitor 38    
            isource 1     
           resistor 1     
            vsource 7     

Analysis and control statement inventory:
               info 7     
         montecarlo 1     
                pss 1     
               tran 1     

Output statements:
             .probe 0     
           .measure 0     
               save 0     

Design checks inventory:
          paramtest 55    
             assert 175   


Notice from spectre during initial setup.
    Spectre X preset=cx enabled.
    73 warnings suppressed.

Time for parsing: CPU = 19.576 ms, elapsed = 567.608 ms.
Time accumulated: CPU = 539.777 ms, elapsed = 1.0786 s.
Peak resident memory used = 207 Mbytes.

~~~~~~~~~~~~~~~~~~~~~~
Pre-Simulation Summary
~~~~~~~~~~~~~~~~~~~~~~
   -   (Spectre X) Multi-threading. The recommended number of threads is 1, consider adding +mt=1 on command line.
~~~~~~~~~~~~~~~~~~~~~~

**************************************************
Monte Carlo Analysis `mc1': iteration = (46 -> 54)
**************************************************
Important parameter values:
    seed = 12345
    sampling = lds
    variations = all
    firstrun = 46
    numruns = 9
    nullmfactorcorrelation = no
    donominal = no
    method = standard
Opening iteration number and data-directory mapping file:  /home/davidevi/Desktop/myproject/Sim/VGA/VGA_1_pss_tb/maestro/results/maestro/MonteCarlo.5/46/MC/groupRunDataDir/netlist/../psf/mc1.mapping

Statistical parameters:
    Defined process parameters: 629
    Defined mismatch parameters (subckt based): 86
    Non-referenced mismatch parameters: 80
    Number of random variables: 707
    Gaussian truncation for process parameters: 4.00 sigma
    Gaussian truncation for mismatch parameters: 4.00 sigma


**** Skipping runs 1 to 45 for `mc1'


Opening the PSF file ../psf/mc1_tran.montecarlo ...

Opening the PSF file ../psf/mc1_finalTimeOP.montecarlo ...

Opening the PSF file ../psf/mc1_pss_td.montecarlo ...

Opening the PSF file ../psf/mc1_pss_fd.montecarlo ...

Opening the PSF file ../psf/mc1_modelParameter.montecarlo ...

Opening the PSF file ../psf/mc1_element.montecarlo ...

Opening the PSF file ../psf/mc1_outputParameter.montecarlo ...

Opening the PSF file ../psf/mc1_designParamVals.montecarlo ...

Opening the PSF file ../psf/mc1_primitives.montecarlo ...

Opening the PSF file ../psf/mc1_subckts.montecarlo ...

**** Performing monte carlo loop for `mc1'

46   0.00% 

Notice from spectre at iteration = 46 during transient analysis `tran', during Monte Carlo analysis `mc1'.
    No checklimit analysis defined for asserts. A default checklimit analysis 'SpectreChecklimitAnal' has been created with all asserts enabled.


*************************************************
Transient Analysis `tran': time = (0 s -> 100 ms)
*************************************************

Opening the PSF file ../psf/mc1_separate/046/tran.tran.tran ...

Notice from spectre at iteration = 46 during IC analysis, during transient analysis `tran', during Monte Carlo analysis `mc1'.
    Bad pivoting is found during DC analysis. Option dc_pivot_check=yes is recommended for possible improvement of convergence.
Warning from spectre at iteration = 46 during check, during IC analysis, during transient analysis `tran', during Monte Carlo analysis `mc1'.
    WARNING (CMI-2943): Parameter checks have been ignored because the valid value for parameter 'trise' could not be found in 'C1'.
    WARNING (CMI-2943): Parameter checks have been ignored because the valid value for parameter 'trise' could not be found in 'I0.C8<0>_turbo_m4.C1'.
    WARNING (CMI-2943): Parameter checks have been ignored because the valid value for parameter 'trise' could not be found in 'I0.C9<0>_turbo_m8.C1'.
    WARNING (CMI-2943): Parameter checks have been ignored because the valid value for parameter 'trise' could not be found in 'I0.C7<0>_turbo_m2.C1'.
    WARNING (CMI-2943): Parameter checks have been ignored because the valid value for parameter 'trise' could not be found in 'I0.R2.CM'.
        Further occurrences of this warning will be suppressed.

Convergence achieved in 18 iterations.
DC simulation time: CPU = 2.929 ms, elapsed = 2.92897 ms.
Important parameter values:
    start = 0 s
    outputstart = 0 s
    stop = 100 ms
    step = 100 us
    maxstep = 1 ms
    ic = all
    useprevic = no
    skipdc = no
    reltol = 100e-06
    abstol(V) = 1 uV
    abstol(I) = 1 pA
    temp = 27 C
    tnom = 27 C
    tempeffects = all
    errpreset = conservative_sigglobal
    method = gear2only
    lteratio = 10
    relref = sigglobal
    cmin = 0 F
    gmin = 1 pS
    rabsshort = 1 mOhm


Notice from spectre at iteration = 46 during transient analysis `tran', during Monte Carlo analysis `mc1'.
    Multithreading is disabled due to the size of the design being too small.


Output and IC/nodeset summary:
                 save   7       (current)
                 save   32      (voltage)

    tran: time = 2.904 ms     (2.9 %), step = 932.6 us     (933 m%)
    tran: time = 7.841 ms    (7.84 %), step = 1 ms            (1 %)
    tran: time = 13.29 ms    (13.3 %), step = 870.9 us     (871 m%)
    tran: time = 18.21 ms    (18.2 %), step = 1 ms            (1 %)
    tran: time = 22.73 ms    (22.7 %), step = 854.5 us     (855 m%)
    tran: time = 27.55 ms    (27.6 %), step = 1 ms            (1 %)
    tran: time = 33.04 ms      (33 %), step = 862.6 us     (863 m%)
    tran: time = 37.91 ms    (37.9 %), step = 1 ms            (1 %)
    tran: time = 43.35 ms    (43.4 %), step = 873.2 us     (873 m%)
    tran: time = 48.27 ms    (48.3 %), step = 1 ms            (1 %)
    tran: time = 52.79 ms    (52.8 %), step = 855.9 us     (856 m%)
    tran: time = 57.62 ms    (57.6 %), step = 1 ms            (1 %)
    tran: time = 63.1 ms     (63.1 %), step = 864.3 us     (864 m%)
    tran: time = 67.98 ms      (68 %), step = 1 ms            (1 %)
    tran: time = 72.54 ms    (72.5 %), step = 850.9 us     (851 m%)
    tran: time = 78.34 ms    (78.3 %), step = 1 ms            (1 %)
    tran: time = 82.84 ms    (82.8 %), step = 857.2 us     (857 m%)
    tran: time = 87.69 ms    (87.7 %), step = 1 ms            (1 %)
    tran: time = 93.16 ms    (93.2 %), step = 866.3 us     (866 m%)
    tran: time = 98.06 ms    (98.1 %), step = 1 ms            (1 %)
Number of accepted tran steps =             112

Maximum value achieved for any signal of each quantity: 
V: V(net2) = 3.3 V
I: I(V0:p) = 6.54 uA

~~~~~~~~~~~~~~~~~~~~~~~~~~~~~~~~~
Post-Transient Simulation Summary
~~~~~~~~~~~~~~~~~~~~~~~~~~~~~~~~~
   -   Non-default settings that could significantly slow down simulation
          errpreset = conservative_sigglobal, default moderate
~~~~~~~~~~~~~~~~~~~~~~~~~~~~~~~~~


During simulation, the CPU load for active processors is :
         0 (83.5 %)      1 (36.1 %)      2 (41.7 %)      3 (47.2 %)
         4 (18.5 %)      5 (11.4 %)      6 (84.3 %)      7 (35.5 %)
         8 (30.6 %)      9 (12.7 %)     10 (39.1 %)     11 (100.0 %)
        12 (32.7 %)     13 (33.6 %)     14 (20.2 %)     15 (100.0 %)
        16 (26.2 %)     17 (25.9 %)     18 (15.1 %)     19 (8.5 %)
        20 (43.9 %)     21 (75.7 %)     22 (65.1 %)     23 (85.0 %)
        24 (19.0 %)     25 (100.0 %)    26 (3.8 %)      27 (18.7 %)
        28 (59.8 %)     29 (100.0 %)    30 (8.6 %)      31 (73.1 %)
        32 (41.8 %)     33 (50.0 %)     34 (6.6 %)      35 (29.2 %)
        36 (100.0 %)    37 (37.1 %)     38 (61.5 %)     39 (18.4 %)
        40 (63.5 %)     41 (39.3 %)     42 (34.3 %)     43 (27.4 %)
        44 (42.5 %)     45 (24.5 %)     46 (18.9 %)     47 (50.0 %)
        Total: 2100.6%
Initial condition solution time: CPU = 3.002 ms, elapsed = 3.00312 ms.
Intrinsic tran analysis time:    CPU = 21.497 ms, elapsed = 22.9239 ms.
Total time required for tran analysis `tran': CPU = 98.617 ms, elapsed = 103.175 ms, util. = 95.6%.
Time accumulated: CPU = 690.059 ms, elapsed = 1.24089 s.
Peak resident memory used = 218 Mbytes.


Notice from spectre during transient analysis `tran', during Monte Carlo analysis `mc1'.
    12 warnings suppressed.

finalTimeOP: writing operating point information to rawfile.

Opening the PSF file ../psf/mc1_separate/046/finalTimeOP.info ...
Licensing Information:
[13:18:17.460059] Periodic Lic check successful


**************************************************
Periodic Steady-State Analysis `pss': fund = 50 Hz
**************************************************

Warning from spectre during check, during IC analysis, during periodic steady state analysis `pss', during Monte Carlo analysis `mc1'.
    WARNING (CMI-2943): Parameter checks have been ignored because the valid value for parameter 'trise' could not be found in 'C1'.
    WARNING (CMI-2943): Parameter checks have been ignored because the valid value for parameter 'trise' could not be found in 'I0.C8<0>_turbo_m4.C1'.
    WARNING (CMI-2943): Parameter checks have been ignored because the valid value for parameter 'trise' could not be found in 'I0.C9<0>_turbo_m8.C1'.
    WARNING (CMI-2943): Parameter checks have been ignored because the valid value for parameter 'trise' could not be found in 'I0.C7<0>_turbo_m2.C1'.
    WARNING (CMI-2943): Parameter checks have been ignored because the valid value for parameter 'trise' could not be found in 'I0.R2.CM'.
        Further occurrences of this warning will be suppressed.

Convergence achieved in 18 iterations.
DC simulation time: CPU = 2.357 ms, elapsed = 2.35796 ms.

==================================
pss `tstab': time = (0 s -> 20 ms)
==================================

Output and IC/nodeset summary:
                 save   7       (current)
                 save   32      (voltage)

Important parameter values in tstab integration:
    start = 0 s
    outputstart = 0 s
    stop = 20 ms
    period = 20 ms
    maxperiods = 20
    step = 20 us
    maxstep = 800 us
    ic = all
    useprevic = no
    skipdc = no
    reltol = 1e-03
    abstol(V) = 1 uV
    abstol(I) = 1 pA
    temp = 27 C
    tnom = 27 C
    tempeffects = all
    method = traponly
    lteratio = 3.5
    relref = sigglobal
    cmin = 0 F
    gmin = 1 pS
    rabsshort = 1 mOhm

    pss: time = 500.3 us     (2.5 %), step = 251.6 us     (1.26 %)
    pss: time = 2.16 ms     (10.8 %), step = 800 us          (4 %)
    pss: time = 2.96 ms     (14.8 %), step = 800 us          (4 %)
    pss: time = 3.76 ms     (18.8 %), step = 800 us          (4 %)
    pss: time = 4.56 ms     (22.8 %), step = 800 us          (4 %)
    pss: time = 6.16 ms     (30.8 %), step = 800 us          (4 %)
    pss: time = 6.96 ms     (34.8 %), step = 800 us          (4 %)
    pss: time = 7.76 ms     (38.8 %), step = 800 us          (4 %)
    pss: time = 8.56 ms     (42.8 %), step = 800 us          (4 %)
    pss: time = 10.16 ms    (50.8 %), step = 800 us          (4 %)
    pss: time = 10.96 ms    (54.8 %), step = 800 us          (4 %)
    pss: time = 11.76 ms    (58.8 %), step = 800 us          (4 %)
    pss: time = 12.56 ms    (62.8 %), step = 800 us          (4 %)
    pss: time = 14.16 ms    (70.8 %), step = 800 us          (4 %)
    pss: time = 14.96 ms    (74.8 %), step = 800 us          (4 %)
    pss: time = 15.76 ms    (78.8 %), step = 800 us          (4 %)
    pss: time = 16.56 ms    (82.8 %), step = 800 us          (4 %)
    pss: time = 18.16 ms    (90.8 %), step = 800 us          (4 %)
    pss: time = 18.96 ms    (94.8 %), step = 800 us          (4 %)
    pss: time = 20 ms        (100 %), step = 520.1 us      (2.6 %)
Total time required for tstab analysis `pss': CPU = 5.879 ms, elapsed = 5.87893 ms.
Time accumulated: CPU = 712.265 ms, elapsed = 1.27855 s.
Peak resident memory used = 219 Mbytes.

Conv norm = 29.3, max dV(vout_filt) = -10.0836 mV, took 0 s.

Important parameter values in pss iteration:
    start = 0 s
    outputstart = 0 s
    stop = 20 ms
    period = 20 ms
    maxperiods = 20
    steadyratio = 10e-03
    step = 20 us
    maxstep = 100 us
    ic = all
    useprevic = no
    skipdc = no
    reltol = 100e-06
    abstol(V) = 1 uV
    abstol(I) = 1 pA
    temp = 27 C
    tnom = 27 C
    tempeffects = all
    errpreset = conservative
    method = gear2only
    lteratio = 10
    relref = sigglobal
    cmin = 0 F
    gmin = 1 pS
    rabsshort = 1 mOhm


Notice from spectre during periodic steady state analysis `pss', during Monte Carlo analysis `mc1'.
    12 warnings suppressed.


============================
`pss': time = (0 s -> 20 ms)
============================
    pss: time = 512.5 us    (2.56 %), step = 12.5 us     (62.5 m%)
    pss: time = 1.512 ms    (7.56 %), step = 12.5 us     (62.5 m%)
    pss: time = 2.512 ms    (12.6 %), step = 12.5 us     (62.5 m%)
    pss: time = 3.512 ms    (17.6 %), step = 12.5 us     (62.5 m%)
    pss: time = 4.5 ms      (22.5 %), step = 12.5 us     (62.5 m%)
    pss: time = 5.5 ms      (27.5 %), step = 12.5 us     (62.5 m%)
    pss: time = 6.5 ms      (32.5 %), step = 12.5 us     (62.5 m%)
    pss: time = 7.5 ms      (37.5 %), step = 12.5 us     (62.5 m%)
    pss: time = 8.5 ms      (42.5 %), step = 12.5 us     (62.5 m%)
    pss: time = 9.5 ms      (47.5 %), step = 12.5 us     (62.5 m%)
    pss: time = 10.5 ms     (52.5 %), step = 12.5 us     (62.5 m%)
    pss: time = 11.5 ms     (57.5 %), step = 12.5 us     (62.5 m%)
    pss: time = 12.5 ms     (62.5 %), step = 12.5 us     (62.5 m%)
    pss: time = 13.5 ms     (67.5 %), step = 12.5 us     (62.5 m%)
    pss: time = 14.5 ms     (72.5 %), step = 12.5 us     (62.5 m%)
    pss: time = 15.5 ms     (77.5 %), step = 12.5 us     (62.5 m%)
    pss: time = 16.5 ms     (82.5 %), step = 12.5 us     (62.5 m%)
    pss: time = 17.5 ms     (87.5 %), step = 12.5 us     (62.5 m%)
    pss: time = 18.5 ms     (92.5 %), step = 12.5 us     (62.5 m%)
    pss: time = 19.51 ms    (97.6 %), step = 12.5 us     (62.5 m%)
Conv norm = 257e-03, max dV(vout) = -25.4622 uV, took 390 ms.


Opening the PSF file ../psf/mc1_separate/046/pss.td.pss ...

Opening the PSF file ../psf/mc1_separate/046/pss.fd.pss ...

============================
`pss': time = (0 s -> 20 ms)
============================
    pss: time = 512.5 us    (2.56 %), step = 12.5 us     (62.5 m%)
    pss: time = 1.512 ms    (7.56 %), step = 12.5 us     (62.5 m%)
    pss: time = 2.512 ms    (12.6 %), step = 12.5 us     (62.5 m%)
    pss: time = 3.512 ms    (17.6 %), step = 12.5 us     (62.5 m%)
    pss: time = 4.5 ms      (22.5 %), step = 12.5 us     (62.5 m%)
    pss: time = 5.5 ms      (27.5 %), step = 12.5 us     (62.5 m%)
    pss: time = 6.5 ms      (32.5 %), step = 12.5 us     (62.5 m%)
    pss: time = 7.5 ms      (37.5 %), step = 12.5 us     (62.5 m%)
    pss: time = 8.5 ms      (42.5 %), step = 12.5 us     (62.5 m%)
    pss: time = 9.5 ms      (47.5 %), step = 12.5 us     (62.5 m%)
    pss: time = 10.5 ms     (52.5 %), step = 12.5 us     (62.5 m%)
    pss: time = 11.5 ms     (57.5 %), step = 12.5 us     (62.5 m%)
    pss: time = 12.5 ms     (62.5 %), step = 12.5 us     (62.5 m%)
    pss: time = 13.5 ms     (67.5 %), step = 12.5 us     (62.5 m%)
    pss: time = 14.5 ms     (72.5 %), step = 12.5 us     (62.5 m%)
    pss: time = 15.5 ms     (77.5 %), step = 12.5 us     (62.5 m%)
    pss: time = 16.5 ms     (82.5 %), step = 12.5 us     (62.5 m%)
    pss: time = 17.5 ms     (87.5 %), step = 12.5 us     (62.5 m%)
    pss: time = 18.5 ms     (92.5 %), step = 12.5 us     (62.5 m%)
    pss: time = 19.51 ms    (97.6 %), step = 12.5 us     (62.5 m%)

Maximum value achieved for any signal of each quantity: 
V: V(net2) = 3.3 V
I: I(V0:p) = 6.54 uA
Initial condition solution time: CPU = 2.403 ms, elapsed = 2.40493 ms.
pss: The steady-state solution was achieved in 2 iterations.
Number of accepted pss steps =             1600
Total time required for pss analysis `pss': CPU = 814.667 ms, elapsed = 831.965 ms, util. = 97.9%.
Time accumulated: CPU = 1.51041 s, elapsed = 2.08126 s.
Peak resident memory used = 225 Mbytes.

modelParameter: writing model parameter values to rawfile.

Opening the PSF file ../psf/mc1_separate/046/modelParameter.info ...
element: writing instance parameter values to rawfile.

Opening the PSF file ../psf/mc1_separate/046/element.info ...
outputParameter: writing output parameter values to rawfile.

Opening the PSF file ../psf/mc1_separate/046/outputParameter.info ...
designParamVals: writing netlist parameters to rawfile.

Opening the PSFASCII file ../psf/mc1_separate/046/designParamVals.info ...
primitives: writing primitives to rawfile.

Opening the PSFASCII file ../psf/mc1_separate/046/primitives.info.primitives ...
subckts: writing subcircuits to rawfile.

Opening the PSFASCII file ../psf/mc1_separate/046/subckts.info.subckts ...
47  12.50% 

*************************************************
Transient Analysis `tran': time = (0 s -> 100 ms)
*************************************************

Opening the PSF file ../psf/mc1_separate/047/tran.tran.tran ...

Notice from spectre during IC analysis, during transient analysis `tran', during Monte Carlo analysis `mc1'.
    Bad pivoting is found during DC analysis. Option dc_pivot_check=yes is recommended for possible improvement of convergence.
Warning from spectre during check, during IC analysis, during transient analysis `tran', during Monte Carlo analysis `mc1'.
    WARNING (CMI-2943): Parameter checks have been ignored because the valid value for parameter 'trise' could not be found in 'C1'.
    WARNING (CMI-2943): Parameter checks have been ignored because the valid value for parameter 'trise' could not be found in 'I0.C8<0>_turbo_m4.C1'.
    WARNING (CMI-2943): Parameter checks have been ignored because the valid value for parameter 'trise' could not be found in 'I0.C9<0>_turbo_m8.C1'.
    WARNING (CMI-2943): Parameter checks have been ignored because the valid value for parameter 'trise' could not be found in 'I0.C7<0>_turbo_m2.C1'.
    WARNING (CMI-2943): Parameter checks have been ignored because the valid value for parameter 'trise' could not be found in 'I0.R2.CM'.
        Further occurrences of this warning will be suppressed.

Convergence achieved in 17 iterations.
DC simulation time: CPU = 2.434 ms, elapsed = 2.43521 ms.
Important parameter values:
    start = 0 s
    outputstart = 0 s
    stop = 100 ms
    step = 100 us
    maxstep = 1 ms
    ic = all
    useprevic = no
    skipdc = no
    reltol = 100e-06
    abstol(V) = 1 uV
    abstol(I) = 1 pA
    temp = 27 C
    tnom = 27 C
    tempeffects = all
    errpreset = conservative_sigglobal
    method = gear2only
    lteratio = 10
    relref = sigglobal
    cmin = 0 F
    gmin = 1 pS
    rabsshort = 1 mOhm


Notice from spectre during transient analysis `tran', during Monte Carlo analysis `mc1'.
    Multithreading is disabled due to the size of the design being too small.


Output and IC/nodeset summary:
                 save   7       (current)
                 save   32      (voltage)

    tran: time = 2.908 ms    (2.91 %), step = 934.7 us     (935 m%)
    tran: time = 7.846 ms    (7.85 %), step = 1 ms            (1 %)
    tran: time = 13.29 ms    (13.3 %), step = 871.1 us     (871 m%)
    tran: time = 18.21 ms    (18.2 %), step = 1 ms            (1 %)
    tran: time = 22.73 ms    (22.7 %), step = 854.7 us     (855 m%)
    tran: time = 27.56 ms    (27.6 %), step = 1 ms            (1 %)
    tran: time = 33.04 ms      (33 %), step = 862.8 us     (863 m%)
    tran: time = 37.92 ms    (37.9 %), step = 1 ms            (1 %)
    tran: time = 43.36 ms    (43.4 %), step = 873.4 us     (873 m%)
    tran: time = 48.28 ms    (48.3 %), step = 1 ms            (1 %)
    tran: time = 52.79 ms    (52.8 %), step = 856 us       (856 m%)
    tran: time = 57.63 ms    (57.6 %), step = 1 ms            (1 %)
    tran: time = 63.11 ms    (63.1 %), step = 864.6 us     (865 m%)
    tran: time = 67.99 ms      (68 %), step = 1 ms            (1 %)
    tran: time = 72.54 ms    (72.5 %), step = 851 us       (851 m%)
    tran: time = 78.34 ms    (78.3 %), step = 1 ms            (1 %)
    tran: time = 82.85 ms    (82.9 %), step = 857.5 us     (857 m%)
    tran: time = 87.69 ms    (87.7 %), step = 1 ms            (1 %)
    tran: time = 93.17 ms    (93.2 %), step = 866.6 us     (867 m%)
    tran: time = 98.06 ms    (98.1 %), step = 1 ms            (1 %)
Number of accepted tran steps =             112

Maximum value achieved for any signal of each quantity: 
V: V(net2) = 3.3 V
I: I(V0:p) = 6.494 uA

~~~~~~~~~~~~~~~~~~~~~~~~~~~~~~~~~
Post-Transient Simulation Summary
~~~~~~~~~~~~~~~~~~~~~~~~~~~~~~~~~
   -   Non-default settings that could significantly slow down simulation
          errpreset = conservative_sigglobal, default moderate
~~~~~~~~~~~~~~~~~~~~~~~~~~~~~~~~~


During simulation, the CPU load for active processors is :
         0 (91.5 %)      1 (25.0 %)      2 (43.8 %)      3 (56.8 %)
         4 (25.5 %)      5 (30.0 %)      6 (52.9 %)      7 (22.2 %)
         8 (62.3 %)      9 (15.8 %)     10 (31.6 %)     11 (100.0 %)
        12 (39.8 %)     13 (32.4 %)     14 (40.9 %)     15 (99.0 %)
        16 (45.4 %)     17 (25.1 %)     18 (22.5 %)     19 (26.7 %)
        20 (31.7 %)     21 (80.8 %)     22 (55.8 %)     23 (85.6 %)
        24 (26.7 %)     25 (100.0 %)    26 (19.3 %)     27 (16.0 %)
        28 (67.1 %)     29 (100.0 %)    30 (10.7 %)     31 (63.8 %)
        32 (29.5 %)     33 (27.5 %)     34 (7.3 %)      35 (61.8 %)
        36 (100.0 %)    37 (46.1 %)     38 (43.0 %)     39 (21.9 %)
        40 (79.7 %)     41 (51.2 %)     42 (25.9 %)     43 (56.5 %)
        44 (25.5 %)     45 (30.0 %)     46 (13.6 %)     47 (28.9 %)
        Total: 2195.0%
Initial condition solution time: CPU = 2.472 ms, elapsed = 2.47407 ms.
Intrinsic tran analysis time:    CPU = 21.341 ms, elapsed = 22.733 ms.
Total time required for tran analysis `tran': CPU = 25.882 ms, elapsed = 27.9689 ms, util. = 92.5%.
Time accumulated: CPU = 1.57324 s, elapsed = 2.15765 s.
Peak resident memory used = 225 Mbytes.


Notice from spectre during transient analysis `tran', during Monte Carlo analysis `mc1'.
    12 warnings suppressed.

finalTimeOP: writing operating point information to rawfile.

Opening the PSF file ../psf/mc1_separate/047/finalTimeOP.info ...
Licensing Information:
[13:18:18.376337] Periodic Lic check successful


**************************************************
Periodic Steady-State Analysis `pss': fund = 50 Hz
**************************************************

Notice from spectre during IC analysis, during periodic steady state analysis `pss', during Monte Carlo analysis `mc1'.
    Bad pivoting is found during DC analysis. Option dc_pivot_check=yes is recommended for possible improvement of convergence.
Warning from spectre during check, during IC analysis, during periodic steady state analysis `pss', during Monte Carlo analysis `mc1'.
    WARNING (CMI-2943): Parameter checks have been ignored because the valid value for parameter 'trise' could not be found in 'C1'.
    WARNING (CMI-2943): Parameter checks have been ignored because the valid value for parameter 'trise' could not be found in 'I0.C8<0>_turbo_m4.C1'.
    WARNING (CMI-2943): Parameter checks have been ignored because the valid value for parameter 'trise' could not be found in 'I0.C9<0>_turbo_m8.C1'.
    WARNING (CMI-2943): Parameter checks have been ignored because the valid value for parameter 'trise' could not be found in 'I0.C7<0>_turbo_m2.C1'.
    WARNING (CMI-2943): Parameter checks have been ignored because the valid value for parameter 'trise' could not be found in 'I0.R2.CM'.
        Further occurrences of this warning will be suppressed.

Convergence achieved in 17 iterations.
DC simulation time: CPU = 2.528 ms, elapsed = 2.52914 ms.

==================================
pss `tstab': time = (0 s -> 20 ms)
==================================

Output and IC/nodeset summary:
                 save   7       (current)
                 save   32      (voltage)

Important parameter values in tstab integration:
    start = 0 s
    outputstart = 0 s
    stop = 20 ms
    period = 20 ms
    maxperiods = 20
    step = 20 us
    maxstep = 800 us
    ic = all
    useprevic = no
    skipdc = no
    reltol = 1e-03
    abstol(V) = 1 uV
    abstol(I) = 1 pA
    temp = 27 C
    tnom = 27 C
    tempeffects = all
    method = traponly
    lteratio = 3.5
    relref = sigglobal
    cmin = 0 F
    gmin = 1 pS
    rabsshort = 1 mOhm

    pss: time = 522.1 us    (2.61 %), step = 264 us       (1.32 %)
    pss: time = 2.2 ms        (11 %), step = 800 us          (4 %)
    pss: time = 3 ms          (15 %), step = 800 us          (4 %)
    pss: time = 3.8 ms        (19 %), step = 800 us          (4 %)
    pss: time = 4.6 ms        (23 %), step = 800 us          (4 %)
    pss: time = 6.2 ms        (31 %), step = 800 us          (4 %)
    pss: time = 7 ms          (35 %), step = 800 us          (4 %)
    pss: time = 7.8 ms        (39 %), step = 800 us          (4 %)
    pss: time = 8.6 ms        (43 %), step = 800 us          (4 %)
    pss: time = 10.2 ms       (51 %), step = 800 us          (4 %)
    pss: time = 11 ms         (55 %), step = 800 us          (4 %)
    pss: time = 11.8 ms       (59 %), step = 800 us          (4 %)
    pss: time = 12.6 ms       (63 %), step = 800 us          (4 %)
    pss: time = 14.2 ms       (71 %), step = 800 us          (4 %)
    pss: time = 15 ms         (75 %), step = 800 us          (4 %)
    pss: time = 15.8 ms       (79 %), step = 800 us          (4 %)
    pss: time = 16.6 ms       (83 %), step = 800 us          (4 %)
    pss: time = 18.2 ms       (91 %), step = 800 us          (4 %)
    pss: time = 19 ms         (95 %), step = 800 us          (4 %)
    pss: time = 20 ms        (100 %), step = 500 us        (2.5 %)
Total time required for tstab analysis `pss': CPU = 6.175 ms, elapsed = 6.18696 ms.
Time accumulated: CPU = 1.59777 s, elapsed = 2.1957 s.
Peak resident memory used = 225 Mbytes.

Conv norm = 29.8, max dV(vout_filt) = -10.2406 mV, took 10 ms.

Important parameter values in pss iteration:
    start = 0 s
    outputstart = 0 s
    stop = 20 ms
    period = 20 ms
    maxperiods = 20
    steadyratio = 10e-03
    step = 20 us
    maxstep = 100 us
    ic = all
    useprevic = no
    skipdc = no
    reltol = 100e-06
    abstol(V) = 1 uV
    abstol(I) = 1 pA
    temp = 27 C
    tnom = 27 C
    tempeffects = all
    errpreset = conservative
    method = gear2only
    lteratio = 10
    relref = sigglobal
    cmin = 0 F
    gmin = 1 pS
    rabsshort = 1 mOhm


Notice from spectre during periodic steady state analysis `pss', during Monte Carlo analysis `mc1'.
    12 warnings suppressed.


============================
`pss': time = (0 s -> 20 ms)
============================
    pss: time = 512.5 us    (2.56 %), step = 12.5 us     (62.5 m%)
    pss: time = 1.512 ms    (7.56 %), step = 12.5 us     (62.5 m%)
    pss: time = 2.512 ms    (12.6 %), step = 12.5 us     (62.5 m%)
    pss: time = 3.512 ms    (17.6 %), step = 12.5 us     (62.5 m%)
    pss: time = 4.5 ms      (22.5 %), step = 12.5 us     (62.5 m%)
    pss: time = 5.5 ms      (27.5 %), step = 12.5 us     (62.5 m%)
    pss: time = 6.5 ms      (32.5 %), step = 12.5 us     (62.5 m%)
    pss: time = 7.5 ms      (37.5 %), step = 12.5 us     (62.5 m%)
    pss: time = 8.5 ms      (42.5 %), step = 12.5 us     (62.5 m%)
    pss: time = 9.5 ms      (47.5 %), step = 12.5 us     (62.5 m%)
    pss: time = 10.5 ms     (52.5 %), step = 12.5 us     (62.5 m%)
    pss: time = 11.5 ms     (57.5 %), step = 12.5 us     (62.5 m%)
    pss: time = 12.5 ms     (62.5 %), step = 12.5 us     (62.5 m%)
    pss: time = 13.5 ms     (67.5 %), step = 12.5 us     (62.5 m%)
    pss: time = 14.5 ms     (72.5 %), step = 12.5 us     (62.5 m%)
    pss: time = 15.5 ms     (77.5 %), step = 12.5 us     (62.5 m%)
    pss: time = 16.5 ms     (82.5 %), step = 12.5 us     (62.5 m%)
    pss: time = 17.5 ms     (87.5 %), step = 12.5 us     (62.5 m%)
    pss: time = 18.5 ms     (92.5 %), step = 12.5 us     (62.5 m%)
    pss: time = 19.51 ms    (97.6 %), step = 12.5 us     (62.5 m%)
Conv norm = 248e-03, max dV(vout_filt) = 24.5283 uV, took 370 ms.


Opening the PSF file ../psf/mc1_separate/047/pss.td.pss ...

Opening the PSF file ../psf/mc1_separate/047/pss.fd.pss ...

============================
`pss': time = (0 s -> 20 ms)
============================
    pss: time = 512.5 us    (2.56 %), step = 12.5 us     (62.5 m%)
    pss: time = 1.512 ms    (7.56 %), step = 12.5 us     (62.5 m%)
    pss: time = 2.512 ms    (12.6 %), step = 12.5 us     (62.5 m%)
    pss: time = 3.512 ms    (17.6 %), step = 12.5 us     (62.5 m%)
    pss: time = 4.5 ms      (22.5 %), step = 12.5 us     (62.5 m%)
    pss: time = 5.5 ms      (27.5 %), step = 12.5 us     (62.5 m%)
    pss: time = 6.5 ms      (32.5 %), step = 12.5 us     (62.5 m%)
    pss: time = 7.5 ms      (37.5 %), step = 12.5 us     (62.5 m%)
    pss: time = 8.5 ms      (42.5 %), step = 12.5 us     (62.5 m%)
    pss: time = 9.5 ms      (47.5 %), step = 12.5 us     (62.5 m%)
    pss: time = 10.5 ms     (52.5 %), step = 12.5 us     (62.5 m%)
    pss: time = 11.5 ms     (57.5 %), step = 12.5 us     (62.5 m%)
    pss: time = 12.5 ms     (62.5 %), step = 12.5 us     (62.5 m%)
    pss: time = 13.5 ms     (67.5 %), step = 12.5 us     (62.5 m%)
    pss: time = 14.5 ms     (72.5 %), step = 12.5 us     (62.5 m%)
    pss: time = 15.5 ms     (77.5 %), step = 12.5 us     (62.5 m%)
    pss: time = 16.5 ms     (82.5 %), step = 12.5 us     (62.5 m%)
    pss: time = 17.5 ms     (87.5 %), step = 12.5 us     (62.5 m%)
    pss: time = 18.5 ms     (92.5 %), step = 12.5 us     (62.5 m%)
    pss: time = 19.51 ms    (97.6 %), step = 12.5 us     (62.5 m%)

Maximum value achieved for any signal of each quantity: 
V: V(net2) = 3.3 V
I: I(V0:p) = 6.494 uA
Initial condition solution time: CPU = 2.593 ms, elapsed = 2.59495 ms.
pss: The steady-state solution was achieved in 2 iterations.
Number of accepted pss steps =             1600
Total time required for pss analysis `pss': CPU = 808.254 ms, elapsed = 823.32 ms, util. = 98.2%.
Time accumulated: CPU = 2.3865 s, elapsed = 2.98802 s.
Peak resident memory used = 226 Mbytes.

modelParameter: writing model parameter values to rawfile.

Opening the PSF file ../psf/mc1_separate/047/modelParameter.info ...
element: writing instance parameter values to rawfile.

Opening the PSF file ../psf/mc1_separate/047/element.info ...
outputParameter: writing output parameter values to rawfile.

Opening the PSF file ../psf/mc1_separate/047/outputParameter.info ...
designParamVals: writing netlist parameters to rawfile.

Opening the PSFASCII file ../psf/mc1_separate/047/designParamVals.info ...
primitives: writing primitives to rawfile.

Opening the PSFASCII file ../psf/mc1_separate/047/primitives.info.primitives ...
subckts: writing subcircuits to rawfile.

Opening the PSFASCII file ../psf/mc1_separate/047/subckts.info.subckts ...
    mc1: iteration = 47          (12.5 %), step = 1            (12.5 %)
48  25.00% 

*************************************************
Transient Analysis `tran': time = (0 s -> 100 ms)
*************************************************

Opening the PSF file ../psf/mc1_separate/048/tran.tran.tran ...

Notice from spectre during IC analysis, during transient analysis `tran', during Monte Carlo analysis `mc1'.
    Bad pivoting is found during DC analysis. Option dc_pivot_check=yes is recommended for possible improvement of convergence.
Warning from spectre during check, during IC analysis, during transient analysis `tran', during Monte Carlo analysis `mc1'.
    WARNING (CMI-2943): Parameter checks have been ignored because the valid value for parameter 'trise' could not be found in 'C1'.
    WARNING (CMI-2943): Parameter checks have been ignored because the valid value for parameter 'trise' could not be found in 'I0.C8<0>_turbo_m4.C1'.
    WARNING (CMI-2943): Parameter checks have been ignored because the valid value for parameter 'trise' could not be found in 'I0.C9<0>_turbo_m8.C1'.
    WARNING (CMI-2943): Parameter checks have been ignored because the valid value for parameter 'trise' could not be found in 'I0.C7<0>_turbo_m2.C1'.
    WARNING (CMI-2943): Parameter checks have been ignored because the valid value for parameter 'trise' could not be found in 'I0.R2.CM'.
        Further occurrences of this warning will be suppressed.

Convergence achieved in 17 iterations.
DC simulation time: CPU = 2.403 ms, elapsed = 2.40397 ms.
Important parameter values:
    start = 0 s
    outputstart = 0 s
    stop = 100 ms
    step = 100 us
    maxstep = 1 ms
    ic = all
    useprevic = no
    skipdc = no
    reltol = 100e-06
    abstol(V) = 1 uV
    abstol(I) = 1 pA
    temp = 27 C
    tnom = 27 C
    tempeffects = all
    errpreset = conservative_sigglobal
    method = gear2only
    lteratio = 10
    relref = sigglobal
    cmin = 0 F
    gmin = 1 pS
    rabsshort = 1 mOhm


Notice from spectre during transient analysis `tran', during Monte Carlo analysis `mc1'.
    Multithreading is disabled due to the size of the design being too small.


Output and IC/nodeset summary:
                 save   7       (current)
                 save   32      (voltage)

    tran: time = 2.908 ms    (2.91 %), step = 934.6 us     (935 m%)
    tran: time = 7.846 ms    (7.85 %), step = 1 ms            (1 %)
    tran: time = 13.29 ms    (13.3 %), step = 871.1 us     (871 m%)
    tran: time = 18.21 ms    (18.2 %), step = 1 ms            (1 %)
    tran: time = 22.73 ms    (22.7 %), step = 854.6 us     (855 m%)
    tran: time = 27.56 ms    (27.6 %), step = 1 ms            (1 %)
    tran: time = 33.04 ms      (33 %), step = 862.7 us     (863 m%)
    tran: time = 37.92 ms    (37.9 %), step = 1 ms            (1 %)
    tran: time = 43.35 ms    (43.4 %), step = 873.3 us     (873 m%)
    tran: time = 48.28 ms    (48.3 %), step = 1 ms            (1 %)
    tran: time = 52.79 ms    (52.8 %), step = 856 us       (856 m%)
    tran: time = 57.62 ms    (57.6 %), step = 1 ms            (1 %)
    tran: time = 63.1 ms     (63.1 %), step = 864.5 us     (864 m%)
    tran: time = 67.99 ms      (68 %), step = 1 ms            (1 %)
    tran: time = 72.54 ms    (72.5 %), step = 851 us       (851 m%)
    tran: time = 78.34 ms    (78.3 %), step = 1 ms            (1 %)
    tran: time = 82.85 ms    (82.8 %), step = 857.3 us     (857 m%)
    tran: time = 87.69 ms    (87.7 %), step = 1 ms            (1 %)
    tran: time = 93.16 ms    (93.2 %), step = 866.5 us     (866 m%)
    tran: time = 98.06 ms    (98.1 %), step = 1 ms            (1 %)
Number of accepted tran steps =             112

Maximum value achieved for any signal of each quantity: 
V: V(net2) = 3.3 V
I: I(V0:p) = 6.399 uA

~~~~~~~~~~~~~~~~~~~~~~~~~~~~~~~~~
Post-Transient Simulation Summary
~~~~~~~~~~~~~~~~~~~~~~~~~~~~~~~~~
   -   Non-default settings that could significantly slow down simulation
          errpreset = conservative_sigglobal, default moderate
~~~~~~~~~~~~~~~~~~~~~~~~~~~~~~~~~


During simulation, the CPU load for active processors is :
         0 (94.0 %)      1 (24.7 %)      2 (58.3 %)      3 (51.0 %)
         4 (27.0 %)      5 (27.4 %)      6 (49.8 %)      7 (25.0 %)
         8 (72.6 %)      9 (20.5 %)     10 (36.4 %)     11 (86.0 %)
        12 (50.8 %)     13 (28.8 %)     14 (30.7 %)     15 (86.7 %)
        16 (62.1 %)     17 (23.1 %)     18 (43.5 %)     19 (26.1 %)
        20 (37.4 %)     21 (64.5 %)     22 (50.3 %)     23 (85.9 %)
        24 (38.9 %)     25 (100.0 %)    26 (26.8 %)     27 (27.9 %)
        28 (69.5 %)     29 (100.0 %)    30 (18.6 %)     31 (74.7 %)
        32 (27.5 %)     33 (20.6 %)     34 (9.2 %)      35 (55.4 %)
        36 (100.0 %)    37 (52.4 %)     38 (54.5 %)     39 (19.0 %)
        40 (84.8 %)     41 (40.1 %)     42 (21.6 %)     43 (44.9 %)
        44 (47.3 %)     45 (47.0 %)     46 (13.2 %)     47 (27.6 %)
        Total: 2284.1%
Initial condition solution time: CPU = 2.457 ms, elapsed = 2.45786 ms.
Intrinsic tran analysis time:    CPU = 21.65 ms, elapsed = 22.789 ms.
Total time required for tran analysis `tran': CPU = 26.249 ms, elapsed = 28.4181 ms, util. = 92.4%.
Time accumulated: CPU = 2.44924 s, elapsed = 3.06368 s.
Peak resident memory used = 226 Mbytes.


Notice from spectre during transient analysis `tran', during Monte Carlo analysis `mc1'.
    12 warnings suppressed.

finalTimeOP: writing operating point information to rawfile.

Opening the PSF file ../psf/mc1_separate/048/finalTimeOP.info ...
Licensing Information:
[13:18:19.282235] Periodic Lic check successful


**************************************************
Periodic Steady-State Analysis `pss': fund = 50 Hz
**************************************************

Notice from spectre during IC analysis, during periodic steady state analysis `pss', during Monte Carlo analysis `mc1'.
    Bad pivoting is found during DC analysis. Option dc_pivot_check=yes is recommended for possible improvement of convergence.
Warning from spectre during check, during IC analysis, during periodic steady state analysis `pss', during Monte Carlo analysis `mc1'.
    WARNING (CMI-2943): Parameter checks have been ignored because the valid value for parameter 'trise' could not be found in 'C1'.
    WARNING (CMI-2943): Parameter checks have been ignored because the valid value for parameter 'trise' could not be found in 'I0.C8<0>_turbo_m4.C1'.
    WARNING (CMI-2943): Parameter checks have been ignored because the valid value for parameter 'trise' could not be found in 'I0.C9<0>_turbo_m8.C1'.
    WARNING (CMI-2943): Parameter checks have been ignored because the valid value for parameter 'trise' could not be found in 'I0.C7<0>_turbo_m2.C1'.
    WARNING (CMI-2943): Parameter checks have been ignored because the valid value for parameter 'trise' could not be found in 'I0.R2.CM'.
        Further occurrences of this warning will be suppressed.

Convergence achieved in 17 iterations.
DC simulation time: CPU = 2.425 ms, elapsed = 2.42615 ms.

==================================
pss `tstab': time = (0 s -> 20 ms)
==================================

Output and IC/nodeset summary:
                 save   7       (current)
                 save   32      (voltage)

Important parameter values in tstab integration:
    start = 0 s
    outputstart = 0 s
    stop = 20 ms
    period = 20 ms
    maxperiods = 20
    step = 20 us
    maxstep = 800 us
    ic = all
    useprevic = no
    skipdc = no
    reltol = 1e-03
    abstol(V) = 1 uV
    abstol(I) = 1 pA
    temp = 27 C
    tnom = 27 C
    tempeffects = all
    method = traponly
    lteratio = 3.5
    relref = sigglobal
    cmin = 0 F
    gmin = 1 pS
    rabsshort = 1 mOhm

    pss: time = 522.4 us    (2.61 %), step = 264.2 us     (1.32 %)
    pss: time = 2.2 ms        (11 %), step = 800 us          (4 %)
    pss: time = 3 ms          (15 %), step = 800 us          (4 %)
    pss: time = 3.8 ms        (19 %), step = 800 us          (4 %)
    pss: time = 4.6 ms        (23 %), step = 800 us          (4 %)
    pss: time = 6.2 ms        (31 %), step = 800 us          (4 %)
    pss: time = 7 ms          (35 %), step = 800 us          (4 %)
    pss: time = 7.8 ms        (39 %), step = 800 us          (4 %)
    pss: time = 8.6 ms        (43 %), step = 800 us          (4 %)
    pss: time = 10.2 ms       (51 %), step = 800 us          (4 %)
    pss: time = 11 ms         (55 %), step = 800 us          (4 %)
    pss: time = 11.8 ms       (59 %), step = 800 us          (4 %)
    pss: time = 12.6 ms       (63 %), step = 800 us          (4 %)
    pss: time = 14.2 ms       (71 %), step = 800 us          (4 %)
    pss: time = 15 ms         (75 %), step = 800 us          (4 %)
    pss: time = 15.8 ms       (79 %), step = 800 us          (4 %)
    pss: time = 16.6 ms       (83 %), step = 800 us          (4 %)
    pss: time = 18.2 ms       (91 %), step = 800 us          (4 %)
    pss: time = 19 ms         (95 %), step = 800 us          (4 %)
    pss: time = 19.5 ms     (97.5 %), step = 499.8 us      (2.5 %)
Total time required for tstab analysis `pss': CPU = 5.928 ms, elapsed = 5.92709 ms.
Time accumulated: CPU = 2.47068 s, elapsed = 3.10264 s.
Peak resident memory used = 226 Mbytes.

Conv norm = 29.8, max dV(vout_filt) = -10.2429 mV, took 0 s.

Important parameter values in pss iteration:
    start = 0 s
    outputstart = 0 s
    stop = 20 ms
    period = 20 ms
    maxperiods = 20
    steadyratio = 10e-03
    step = 20 us
    maxstep = 100 us
    ic = all
    useprevic = no
    skipdc = no
    reltol = 100e-06
    abstol(V) = 1 uV
    abstol(I) = 1 pA
    temp = 27 C
    tnom = 27 C
    tempeffects = all
    errpreset = conservative
    method = gear2only
    lteratio = 10
    relref = sigglobal
    cmin = 0 F
    gmin = 1 pS
    rabsshort = 1 mOhm


Notice from spectre during periodic steady state analysis `pss', during Monte Carlo analysis `mc1'.
    12 warnings suppressed.


============================
`pss': time = (0 s -> 20 ms)
============================
    pss: time = 512.5 us    (2.56 %), step = 12.5 us     (62.5 m%)
    pss: time = 1.512 ms    (7.56 %), step = 12.5 us     (62.5 m%)
    pss: time = 2.512 ms    (12.6 %), step = 12.5 us     (62.5 m%)
    pss: time = 3.512 ms    (17.6 %), step = 12.5 us     (62.5 m%)
    pss: time = 4.5 ms      (22.5 %), step = 12.5 us     (62.5 m%)
    pss: time = 5.5 ms      (27.5 %), step = 12.5 us     (62.5 m%)
    pss: time = 6.5 ms      (32.5 %), step = 12.5 us     (62.5 m%)
    pss: time = 7.5 ms      (37.5 %), step = 12.5 us     (62.5 m%)
    pss: time = 8.5 ms      (42.5 %), step = 12.5 us     (62.5 m%)
    pss: time = 9.5 ms      (47.5 %), step = 12.5 us     (62.5 m%)
    pss: time = 10.5 ms     (52.5 %), step = 12.5 us     (62.5 m%)
    pss: time = 11.5 ms     (57.5 %), step = 12.5 us     (62.5 m%)
    pss: time = 12.5 ms     (62.5 %), step = 12.5 us     (62.5 m%)
    pss: time = 13.5 ms     (67.5 %), step = 12.5 us     (62.5 m%)
    pss: time = 14.5 ms     (72.5 %), step = 12.5 us     (62.5 m%)
    pss: time = 15.5 ms     (77.5 %), step = 12.5 us     (62.5 m%)
    pss: time = 16.5 ms     (82.5 %), step = 12.5 us     (62.5 m%)
    pss: time = 17.5 ms     (87.5 %), step = 12.5 us     (62.5 m%)
    pss: time = 18.5 ms     (92.5 %), step = 12.5 us     (62.5 m%)
    pss: time = 19.51 ms    (97.6 %), step = 12.5 us     (62.5 m%)
Conv norm = 267e-03, max dV(vout_filt) = 26.364 uV, took 370 ms.


Opening the PSF file ../psf/mc1_separate/048/pss.td.pss ...

Opening the PSF file ../psf/mc1_separate/048/pss.fd.pss ...

============================
`pss': time = (0 s -> 20 ms)
============================
    pss: time = 512.5 us    (2.56 %), step = 12.5 us     (62.5 m%)
    pss: time = 1.512 ms    (7.56 %), step = 12.5 us     (62.5 m%)
    pss: time = 2.512 ms    (12.6 %), step = 12.5 us     (62.5 m%)
    pss: time = 3.512 ms    (17.6 %), step = 12.5 us     (62.5 m%)
    pss: time = 4.5 ms      (22.5 %), step = 12.5 us     (62.5 m%)
    pss: time = 5.5 ms      (27.5 %), step = 12.5 us     (62.5 m%)
    pss: time = 6.5 ms      (32.5 %), step = 12.5 us     (62.5 m%)
    pss: time = 7.5 ms      (37.5 %), step = 12.5 us     (62.5 m%)
    pss: time = 8.5 ms      (42.5 %), step = 12.5 us     (62.5 m%)
    pss: time = 9.5 ms      (47.5 %), step = 12.5 us     (62.5 m%)
    pss: time = 10.5 ms     (52.5 %), step = 12.5 us     (62.5 m%)
    pss: time = 11.5 ms     (57.5 %), step = 12.5 us     (62.5 m%)
    pss: time = 12.5 ms     (62.5 %), step = 12.5 us     (62.5 m%)
    pss: time = 13.5 ms     (67.5 %), step = 12.5 us     (62.5 m%)
    pss: time = 14.5 ms     (72.5 %), step = 12.5 us     (62.5 m%)
    pss: time = 15.5 ms     (77.5 %), step = 12.5 us     (62.5 m%)
    pss: time = 16.5 ms     (82.5 %), step = 12.5 us     (62.5 m%)
    pss: time = 17.5 ms     (87.5 %), step = 12.5 us     (62.5 m%)
    pss: time = 18.5 ms     (92.5 %), step = 12.5 us     (62.5 m%)
    pss: time = 19.51 ms    (97.6 %), step = 12.5 us     (62.5 m%)

Maximum value achieved for any signal of each quantity: 
V: V(net2) = 3.3 V
I: I(V0:p) = 6.399 uA
Initial condition solution time: CPU = 2.477 ms, elapsed = 2.47884 ms.
pss: The steady-state solution was achieved in 2 iterations.
Number of accepted pss steps =             1600
Total time required for pss analysis `pss': CPU = 802.222 ms, elapsed = 821.19 ms, util. = 97.7%.
Time accumulated: CPU = 3.2564 s, elapsed = 3.89278 s.
Peak resident memory used = 226 Mbytes.

modelParameter: writing model parameter values to rawfile.

Opening the PSF file ../psf/mc1_separate/048/modelParameter.info ...
element: writing instance parameter values to rawfile.

Opening the PSF file ../psf/mc1_separate/048/element.info ...
outputParameter: writing output parameter values to rawfile.

Opening the PSF file ../psf/mc1_separate/048/outputParameter.info ...
designParamVals: writing netlist parameters to rawfile.

Opening the PSFASCII file ../psf/mc1_separate/048/designParamVals.info ...
primitives: writing primitives to rawfile.

Opening the PSFASCII file ../psf/mc1_separate/048/primitives.info.primitives ...
subckts: writing subcircuits to rawfile.

Opening the PSFASCII file ../psf/mc1_separate/048/subckts.info.subckts ...
    mc1: iteration = 48            (25 %), step = 1            (12.5 %)
49  37.50% 

*************************************************
Transient Analysis `tran': time = (0 s -> 100 ms)
*************************************************

Opening the PSF file ../psf/mc1_separate/049/tran.tran.tran ...

Notice from spectre during IC analysis, during transient analysis `tran', during Monte Carlo analysis `mc1'.
    Bad pivoting is found during DC analysis. Option dc_pivot_check=yes is recommended for possible improvement of convergence.
Warning from spectre during check, during IC analysis, during transient analysis `tran', during Monte Carlo analysis `mc1'.
    WARNING (CMI-2943): Parameter checks have been ignored because the valid value for parameter 'trise' could not be found in 'C1'.
    WARNING (CMI-2943): Parameter checks have been ignored because the valid value for parameter 'trise' could not be found in 'I0.C8<0>_turbo_m4.C1'.
    WARNING (CMI-2943): Parameter checks have been ignored because the valid value for parameter 'trise' could not be found in 'I0.C9<0>_turbo_m8.C1'.
    WARNING (CMI-2943): Parameter checks have been ignored because the valid value for parameter 'trise' could not be found in 'I0.C7<0>_turbo_m2.C1'.
    WARNING (CMI-2943): Parameter checks have been ignored because the valid value for parameter 'trise' could not be found in 'I0.R2.CM'.
        Further occurrences of this warning will be suppressed.

Convergence achieved in 20 iterations.
DC simulation time: CPU = 2.536 ms, elapsed = 2.53797 ms.
Important parameter values:
    start = 0 s
    outputstart = 0 s
    stop = 100 ms
    step = 100 us
    maxstep = 1 ms
    ic = all
    useprevic = no
    skipdc = no
    reltol = 100e-06
    abstol(V) = 1 uV
    abstol(I) = 1 pA
    temp = 27 C
    tnom = 27 C
    tempeffects = all
    errpreset = conservative_sigglobal
    method = gear2only
    lteratio = 10
    relref = sigglobal
    cmin = 0 F
    gmin = 1 pS
    rabsshort = 1 mOhm


Notice from spectre during transient analysis `tran', during Monte Carlo analysis `mc1'.
    Multithreading is disabled due to the size of the design being too small.


Output and IC/nodeset summary:
                 save   7       (current)
                 save   32      (voltage)

    tran: time = 2.909 ms    (2.91 %), step = 934.9 us     (935 m%)
    tran: time = 7.846 ms    (7.85 %), step = 1 ms            (1 %)
    tran: time = 13.29 ms    (13.3 %), step = 871.1 us     (871 m%)
    tran: time = 18.21 ms    (18.2 %), step = 1 ms            (1 %)
    tran: time = 22.73 ms    (22.7 %), step = 854.6 us     (855 m%)
    tran: time = 27.56 ms    (27.6 %), step = 1 ms            (1 %)
    tran: time = 33.04 ms      (33 %), step = 862.7 us     (863 m%)
    tran: time = 37.92 ms    (37.9 %), step = 1 ms            (1 %)
    tran: time = 43.36 ms    (43.4 %), step = 873.4 us     (873 m%)
    tran: time = 48.28 ms    (48.3 %), step = 1 ms            (1 %)
    tran: time = 52.79 ms    (52.8 %), step = 856 us       (856 m%)
    tran: time = 57.62 ms    (57.6 %), step = 1 ms            (1 %)
    tran: time = 63.1 ms     (63.1 %), step = 864.5 us     (864 m%)
    tran: time = 67.99 ms      (68 %), step = 1 ms            (1 %)
    tran: time = 72.54 ms    (72.5 %), step = 851 us       (851 m%)
    tran: time = 78.34 ms    (78.3 %), step = 1 ms            (1 %)
    tran: time = 82.85 ms    (82.8 %), step = 857.4 us     (857 m%)
    tran: time = 87.69 ms    (87.7 %), step = 1 ms            (1 %)
    tran: time = 93.17 ms    (93.2 %), step = 866.5 us     (867 m%)
    tran: time = 98.06 ms    (98.1 %), step = 1 ms            (1 %)
Number of accepted tran steps =             112

Maximum value achieved for any signal of each quantity: 
V: V(net2) = 3.3 V
I: I(V0:p) = 6.494 uA

~~~~~~~~~~~~~~~~~~~~~~~~~~~~~~~~~
Post-Transient Simulation Summary
~~~~~~~~~~~~~~~~~~~~~~~~~~~~~~~~~
   -   Non-default settings that could significantly slow down simulation
          errpreset = conservative_sigglobal, default moderate
~~~~~~~~~~~~~~~~~~~~~~~~~~~~~~~~~


During simulation, the CPU load for active processors is :
         0 (95.4 %)      1 (21.9 %)      2 (67.1 %)      3 (49.2 %)
         4 (25.6 %)      5 (32.9 %)      6 (61.6 %)      7 (21.9 %)
         8 (66.2 %)      9 (17.4 %)     10 (47.9 %)     11 (73.1 %)
        12 (45.1 %)     13 (36.6 %)     14 (40.2 %)     15 (75.6 %)
        16 (70.9 %)     17 (21.2 %)     18 (47.4 %)     19 (26.7 %)
        20 (34.4 %)     21 (56.3 %)     22 (54.9 %)     23 (79.0 %)
        24 (31.6 %)     25 (100.0 %)    26 (22.0 %)     27 (26.2 %)
        28 (68.2 %)     29 (100.0 %)    30 (35.8 %)     31 (64.9 %)
        32 (30.9 %)     33 (18.8 %)     34 (23.2 %)     35 (61.2 %)
        36 (100.0 %)    37 (44.5 %)     38 (49.6 %)     39 (18.9 %)
        40 (87.6 %)     41 (33.2 %)     42 (28.5 %)     43 (48.3 %)
        44 (51.9 %)     45 (44.8 %)     46 (27.9 %)     47 (33.4 %)
        Total: 2320.5%
Initial condition solution time: CPU = 2.572 ms, elapsed = 2.57301 ms.
Intrinsic tran analysis time:    CPU = 20.648 ms, elapsed = 21.704 ms.
Total time required for tran analysis `tran': CPU = 25.057 ms, elapsed = 26.6111 ms, util. = 94.2%.
Time accumulated: CPU = 3.3146 s, elapsed = 3.96203 s.
Peak resident memory used = 226 Mbytes.


Notice from spectre during transient analysis `tran', during Monte Carlo analysis `mc1'.
    12 warnings suppressed.

finalTimeOP: writing operating point information to rawfile.

Opening the PSF file ../psf/mc1_separate/049/finalTimeOP.info ...
Licensing Information:
[13:18:20.180488] Periodic Lic check successful


**************************************************
Periodic Steady-State Analysis `pss': fund = 50 Hz
**************************************************

Notice from spectre during IC analysis, during periodic steady state analysis `pss', during Monte Carlo analysis `mc1'.
    Bad pivoting is found during DC analysis. Option dc_pivot_check=yes is recommended for possible improvement of convergence.
Warning from spectre during check, during IC analysis, during periodic steady state analysis `pss', during Monte Carlo analysis `mc1'.
    WARNING (CMI-2943): Parameter checks have been ignored because the valid value for parameter 'trise' could not be found in 'C1'.
    WARNING (CMI-2943): Parameter checks have been ignored because the valid value for parameter 'trise' could not be found in 'I0.C8<0>_turbo_m4.C1'.
    WARNING (CMI-2943): Parameter checks have been ignored because the valid value for parameter 'trise' could not be found in 'I0.C9<0>_turbo_m8.C1'.
    WARNING (CMI-2943): Parameter checks have been ignored because the valid value for parameter 'trise' could not be found in 'I0.C7<0>_turbo_m2.C1'.
    WARNING (CMI-2943): Parameter checks have been ignored because the valid value for parameter 'trise' could not be found in 'I0.R2.CM'.
        Further occurrences of this warning will be suppressed.

Convergence achieved in 20 iterations.
DC simulation time: CPU = 2.736 ms, elapsed = 2.73705 ms.

==================================
pss `tstab': time = (0 s -> 20 ms)
==================================

Output and IC/nodeset summary:
                 save   7       (current)
                 save   32      (voltage)

Important parameter values in tstab integration:
    start = 0 s
    outputstart = 0 s
    stop = 20 ms
    period = 20 ms
    maxperiods = 20
    step = 20 us
    maxstep = 800 us
    ic = all
    useprevic = no
    skipdc = no
    reltol = 1e-03
    abstol(V) = 1 uV
    abstol(I) = 1 pA
    temp = 27 C
    tnom = 27 C
    tempeffects = all
    method = traponly
    lteratio = 3.5
    relref = sigglobal
    cmin = 0 F
    gmin = 1 pS
    rabsshort = 1 mOhm

    pss: time = 524.8 us    (2.62 %), step = 265.6 us     (1.33 %)
    pss: time = 2.205 ms      (11 %), step = 800 us          (4 %)
    pss: time = 3.005 ms      (15 %), step = 800 us          (4 %)
    pss: time = 3.805 ms      (19 %), step = 800 us          (4 %)
    pss: time = 4.605 ms      (23 %), step = 800 us          (4 %)
    pss: time = 6.205 ms      (31 %), step = 800 us          (4 %)
    pss: time = 7.005 ms      (35 %), step = 800 us          (4 %)
    pss: time = 7.805 ms      (39 %), step = 800 us          (4 %)
    pss: time = 8.605 ms      (43 %), step = 800 us          (4 %)
    pss: time = 10.2 ms       (51 %), step = 800 us          (4 %)
    pss: time = 11 ms         (55 %), step = 800 us          (4 %)
    pss: time = 11.8 ms       (59 %), step = 800 us          (4 %)
    pss: time = 12.6 ms       (63 %), step = 800 us          (4 %)
    pss: time = 14.2 ms       (71 %), step = 800 us          (4 %)
    pss: time = 15 ms         (75 %), step = 800 us          (4 %)
    pss: time = 15.8 ms       (79 %), step = 800 us          (4 %)
    pss: time = 16.6 ms       (83 %), step = 800 us          (4 %)
    pss: time = 18.2 ms       (91 %), step = 800 us          (4 %)
    pss: time = 19 ms         (95 %), step = 800 us          (4 %)
    pss: time = 19.5 ms     (97.5 %), step = 497.5 us     (2.49 %)
Total time required for tstab analysis `pss': CPU = 6.026 ms, elapsed = 6.02508 ms.
Time accumulated: CPU = 3.33647 s, elapsed = 4.00108 s.
Peak resident memory used = 226 Mbytes.

Conv norm = 30, max dV(vout_filt) = -10.3328 mV, took 10 ms.

Important parameter values in pss iteration:
    start = 0 s
    outputstart = 0 s
    stop = 20 ms
    period = 20 ms
    maxperiods = 20
    steadyratio = 10e-03
    step = 20 us
    maxstep = 100 us
    ic = all
    useprevic = no
    skipdc = no
    reltol = 100e-06
    abstol(V) = 1 uV
    abstol(I) = 1 pA
    temp = 27 C
    tnom = 27 C
    tempeffects = all
    errpreset = conservative
    method = gear2only
    lteratio = 10
    relref = sigglobal
    cmin = 0 F
    gmin = 1 pS
    rabsshort = 1 mOhm


Notice from spectre during periodic steady state analysis `pss', during Monte Carlo analysis `mc1'.
    12 warnings suppressed.


============================
`pss': time = (0 s -> 20 ms)
============================
    pss: time = 512.5 us    (2.56 %), step = 12.5 us     (62.5 m%)
    pss: time = 1.512 ms    (7.56 %), step = 12.5 us     (62.5 m%)
    pss: time = 2.512 ms    (12.6 %), step = 12.5 us     (62.5 m%)
    pss: time = 3.512 ms    (17.6 %), step = 12.5 us     (62.5 m%)
    pss: time = 4.5 ms      (22.5 %), step = 12.5 us     (62.5 m%)
    pss: time = 5.5 ms      (27.5 %), step = 12.5 us     (62.5 m%)
    pss: time = 6.5 ms      (32.5 %), step = 12.5 us     (62.5 m%)
    pss: time = 7.5 ms      (37.5 %), step = 12.5 us     (62.5 m%)
    pss: time = 8.5 ms      (42.5 %), step = 12.5 us     (62.5 m%)
    pss: time = 9.5 ms      (47.5 %), step = 12.5 us     (62.5 m%)
    pss: time = 10.5 ms     (52.5 %), step = 12.5 us     (62.5 m%)
    pss: time = 11.5 ms     (57.5 %), step = 12.5 us     (62.5 m%)
    pss: time = 12.5 ms     (62.5 %), step = 12.5 us     (62.5 m%)
    pss: time = 13.5 ms     (67.5 %), step = 12.5 us     (62.5 m%)
    pss: time = 14.5 ms     (72.5 %), step = 12.5 us     (62.5 m%)
    pss: time = 15.5 ms     (77.5 %), step = 12.5 us     (62.5 m%)
    pss: time = 16.5 ms     (82.5 %), step = 12.5 us     (62.5 m%)
    pss: time = 17.5 ms     (87.5 %), step = 12.5 us     (62.5 m%)
    pss: time = 18.5 ms     (92.5 %), step = 12.5 us     (62.5 m%)
    pss: time = 19.51 ms    (97.6 %), step = 12.5 us     (62.5 m%)
Conv norm = 731e-03, max dV(vout) = -72.3551 uV, took 380 ms.


Opening the PSF file ../psf/mc1_separate/049/pss.td.pss ...

Opening the PSF file ../psf/mc1_separate/049/pss.fd.pss ...

============================
`pss': time = (0 s -> 20 ms)
============================
    pss: time = 512.5 us    (2.56 %), step = 12.5 us     (62.5 m%)
    pss: time = 1.512 ms    (7.56 %), step = 12.5 us     (62.5 m%)
    pss: time = 2.512 ms    (12.6 %), step = 12.5 us     (62.5 m%)
    pss: time = 3.512 ms    (17.6 %), step = 12.5 us     (62.5 m%)
    pss: time = 4.5 ms      (22.5 %), step = 12.5 us     (62.5 m%)
    pss: time = 5.5 ms      (27.5 %), step = 12.5 us     (62.5 m%)
    pss: time = 6.5 ms      (32.5 %), step = 12.5 us     (62.5 m%)
    pss: time = 7.5 ms      (37.5 %), step = 12.5 us     (62.5 m%)
    pss: time = 8.5 ms      (42.5 %), step = 12.5 us     (62.5 m%)
    pss: time = 9.5 ms      (47.5 %), step = 12.5 us     (62.5 m%)
    pss: time = 10.5 ms     (52.5 %), step = 12.5 us     (62.5 m%)
    pss: time = 11.5 ms     (57.5 %), step = 12.5 us     (62.5 m%)
    pss: time = 12.5 ms     (62.5 %), step = 12.5 us     (62.5 m%)
    pss: time = 13.5 ms     (67.5 %), step = 12.5 us     (62.5 m%)
    pss: time = 14.5 ms     (72.5 %), step = 12.5 us     (62.5 m%)
    pss: time = 15.5 ms     (77.5 %), step = 12.5 us     (62.5 m%)
    pss: time = 16.5 ms     (82.5 %), step = 12.5 us     (62.5 m%)
    pss: time = 17.5 ms     (87.5 %), step = 12.5 us     (62.5 m%)
    pss: time = 18.5 ms     (92.5 %), step = 12.5 us     (62.5 m%)
    pss: time = 19.51 ms    (97.6 %), step = 12.5 us     (62.5 m%)

Maximum value achieved for any signal of each quantity: 
V: V(net2) = 3.3 V
I: I(V0:p) = 6.494 uA
Initial condition solution time: CPU = 2.778 ms, elapsed = 2.78115 ms.
pss: The steady-state solution was achieved in 2 iterations.
Number of accepted pss steps =             1600
Total time required for pss analysis `pss': CPU = 818.236 ms, elapsed = 837.054 ms, util. = 97.8%.
Time accumulated: CPU = 4.13792 s, elapsed = 4.80644 s.
Peak resident memory used = 226 Mbytes.

modelParameter: writing model parameter values to rawfile.

Opening the PSF file ../psf/mc1_separate/049/modelParameter.info ...
element: writing instance parameter values to rawfile.

Opening the PSF file ../psf/mc1_separate/049/element.info ...
outputParameter: writing output parameter values to rawfile.

Opening the PSF file ../psf/mc1_separate/049/outputParameter.info ...
designParamVals: writing netlist parameters to rawfile.

Opening the PSFASCII file ../psf/mc1_separate/049/designParamVals.info ...
primitives: writing primitives to rawfile.

Opening the PSFASCII file ../psf/mc1_separate/049/primitives.info.primitives ...
subckts: writing subcircuits to rawfile.

Opening the PSFASCII file ../psf/mc1_separate/049/subckts.info.subckts ...
    mc1: iteration = 49          (37.5 %), step = 1            (12.5 %)
50  50.00% 

*************************************************
Transient Analysis `tran': time = (0 s -> 100 ms)
*************************************************

Opening the PSF file ../psf/mc1_separate/050/tran.tran.tran ...

Notice from spectre during IC analysis, during transient analysis `tran', during Monte Carlo analysis `mc1'.
    Bad pivoting is found during DC analysis. Option dc_pivot_check=yes is recommended for possible improvement of convergence.
Warning from spectre during check, during IC analysis, during transient analysis `tran', during Monte Carlo analysis `mc1'.
    WARNING (CMI-2943): Parameter checks have been ignored because the valid value for parameter 'trise' could not be found in 'C1'.
    WARNING (CMI-2943): Parameter checks have been ignored because the valid value for parameter 'trise' could not be found in 'I0.C8<0>_turbo_m4.C1'.
    WARNING (CMI-2943): Parameter checks have been ignored because the valid value for parameter 'trise' could not be found in 'I0.C9<0>_turbo_m8.C1'.
    WARNING (CMI-2943): Parameter checks have been ignored because the valid value for parameter 'trise' could not be found in 'I0.C7<0>_turbo_m2.C1'.
    WARNING (CMI-2943): Parameter checks have been ignored because the valid value for parameter 'trise' could not be found in 'I0.R2.CM'.
        Further occurrences of this warning will be suppressed.

Convergence achieved in 17 iterations.
DC simulation time: CPU = 2.442 ms, elapsed = 2.4519 ms.
Important parameter values:
    start = 0 s
    outputstart = 0 s
    stop = 100 ms
    step = 100 us
    maxstep = 1 ms
    ic = all
    useprevic = no
    skipdc = no
    reltol = 100e-06
    abstol(V) = 1 uV
    abstol(I) = 1 pA
    temp = 27 C
    tnom = 27 C
    tempeffects = all
    errpreset = conservative_sigglobal
    method = gear2only
    lteratio = 10
    relref = sigglobal
    cmin = 0 F
    gmin = 1 pS
    rabsshort = 1 mOhm


Notice from spectre during transient analysis `tran', during Monte Carlo analysis `mc1'.
    Multithreading is disabled due to the size of the design being too small.


Output and IC/nodeset summary:
                 save   7       (current)
                 save   32      (voltage)

    tran: time = 2.901 ms     (2.9 %), step = 930.3 us     (930 m%)
    tran: time = 7.838 ms    (7.84 %), step = 1 ms            (1 %)
    tran: time = 13.29 ms    (13.3 %), step = 870.9 us     (871 m%)
    tran: time = 18.2 ms     (18.2 %), step = 1 ms            (1 %)
    tran: time = 22.73 ms    (22.7 %), step = 854.6 us     (855 m%)
    tran: time = 27.55 ms    (27.6 %), step = 1 ms            (1 %)
    tran: time = 33.04 ms      (33 %), step = 862.6 us     (863 m%)
    tran: time = 37.91 ms    (37.9 %), step = 1 ms            (1 %)
    tran: time = 43.35 ms    (43.3 %), step = 873.2 us     (873 m%)
    tran: time = 48.27 ms    (48.3 %), step = 1 ms            (1 %)
    tran: time = 52.78 ms    (52.8 %), step = 855.9 us     (856 m%)
    tran: time = 57.62 ms    (57.6 %), step = 1 ms            (1 %)
    tran: time = 63.1 ms     (63.1 %), step = 864.4 us     (864 m%)
    tran: time = 67.98 ms      (68 %), step = 1 ms            (1 %)
    tran: time = 72.54 ms    (72.5 %), step = 850.9 us     (851 m%)
    tran: time = 78.34 ms    (78.3 %), step = 1 ms            (1 %)
    tran: time = 82.84 ms    (82.8 %), step = 857.3 us     (857 m%)
    tran: time = 87.69 ms    (87.7 %), step = 1 ms            (1 %)
    tran: time = 93.16 ms    (93.2 %), step = 866.4 us     (866 m%)
    tran: time = 98.06 ms    (98.1 %), step = 1 ms            (1 %)
Number of accepted tran steps =             112

Maximum value achieved for any signal of each quantity: 
V: V(net2) = 3.3 V
I: I(V0:p) = 6.451 uA

~~~~~~~~~~~~~~~~~~~~~~~~~~~~~~~~~
Post-Transient Simulation Summary
~~~~~~~~~~~~~~~~~~~~~~~~~~~~~~~~~
   -   Non-default settings that could significantly slow down simulation
          errpreset = conservative_sigglobal, default moderate
~~~~~~~~~~~~~~~~~~~~~~~~~~~~~~~~~


During simulation, the CPU load for active processors is :
         0 (95.9 %)      1 (32.6 %)      2 (72.8 %)      3 (48.0 %)
         4 (27.3 %)      5 (43.1 %)      6 (69.0 %)      7 (21.0 %)
         8 (60.1 %)      9 (25.4 %)     10 (56.5 %)     11 (71.5 %)
        12 (44.9 %)     13 (40.4 %)     14 (40.8 %)     15 (77.2 %)
        16 (76.5 %)     17 (21.1 %)     18 (46.3 %)     19 (27.8 %)
        20 (32.8 %)     21 (61.0 %)     22 (56.1 %)     23 (70.0 %)
        24 (33.4 %)     25 (100.0 %)    26 (25.5 %)     27 (26.3 %)
        28 (63.9 %)     29 (100.0 %)    30 (41.1 %)     31 (57.0 %)
        32 (33.8 %)     33 (32.3 %)     34 (26.6 %)     35 (58.4 %)
        36 (98.8 %)     37 (53.7 %)     38 (44.5 %)     39 (25.4 %)
        40 (82.2 %)     41 (37.6 %)     42 (41.3 %)     43 (42.6 %)
        44 (45.8 %)     45 (49.7 %)     46 (41.1 %)     47 (29.9 %)
        Total: 2408.8%
Initial condition solution time: CPU = 2.483 ms, elapsed = 2.49314 ms.
Intrinsic tran analysis time:    CPU = 22.258 ms, elapsed = 23.3619 ms.
Total time required for tran analysis `tran': CPU = 27.113 ms, elapsed = 28.744 ms, util. = 94.3%.
Time accumulated: CPU = 4.20286 s, elapsed = 4.8833 s.
Peak resident memory used = 226 Mbytes.


Notice from spectre during transient analysis `tran', during Monte Carlo analysis `mc1'.
    12 warnings suppressed.

finalTimeOP: writing operating point information to rawfile.

Opening the PSF file ../psf/mc1_separate/050/finalTimeOP.info ...
Licensing Information:
[13:18:21.102050] Periodic Lic check successful


**************************************************
Periodic Steady-State Analysis `pss': fund = 50 Hz
**************************************************

Notice from spectre during IC analysis, during periodic steady state analysis `pss', during Monte Carlo analysis `mc1'.
    Bad pivoting is found during DC analysis. Option dc_pivot_check=yes is recommended for possible improvement of convergence.
Warning from spectre during check, during IC analysis, during periodic steady state analysis `pss', during Monte Carlo analysis `mc1'.
    WARNING (CMI-2943): Parameter checks have been ignored because the valid value for parameter 'trise' could not be found in 'C1'.
    WARNING (CMI-2943): Parameter checks have been ignored because the valid value for parameter 'trise' could not be found in 'I0.C8<0>_turbo_m4.C1'.
    WARNING (CMI-2943): Parameter checks have been ignored because the valid value for parameter 'trise' could not be found in 'I0.C9<0>_turbo_m8.C1'.
    WARNING (CMI-2943): Parameter checks have been ignored because the valid value for parameter 'trise' could not be found in 'I0.C7<0>_turbo_m2.C1'.
    WARNING (CMI-2943): Parameter checks have been ignored because the valid value for parameter 'trise' could not be found in 'I0.R2.CM'.
        Further occurrences of this warning will be suppressed.

Convergence achieved in 17 iterations.
DC simulation time: CPU = 2.488 ms, elapsed = 2.496 ms.

==================================
pss `tstab': time = (0 s -> 20 ms)
==================================

Output and IC/nodeset summary:
                 save   7       (current)
                 save   32      (voltage)

Important parameter values in tstab integration:
    start = 0 s
    outputstart = 0 s
    stop = 20 ms
    period = 20 ms
    maxperiods = 20
    step = 20 us
    maxstep = 800 us
    ic = all
    useprevic = no
    skipdc = no
    reltol = 1e-03
    abstol(V) = 1 uV
    abstol(I) = 1 pA
    temp = 27 C
    tnom = 27 C
    tempeffects = all
    method = traponly
    lteratio = 3.5
    relref = sigglobal
    cmin = 0 F
    gmin = 1 pS
    rabsshort = 1 mOhm

    pss: time = 800.8 us       (4 %), step = 324.8 us     (1.62 %)
    pss: time = 2.117 ms    (10.6 %), step = 800 us          (4 %)
    pss: time = 2.917 ms    (14.6 %), step = 800 us          (4 %)
    pss: time = 3.717 ms    (18.6 %), step = 800 us          (4 %)
[...]
Total time required for tstab analysis `pss': CPU = 6.189 ms, elapsed = 6.20294 ms.
Time accumulated: CPU = 6.9079 s, elapsed = 7.70408 s.
Peak resident memory used = 226 Mbytes.

Conv norm = 29.8, max dV(vout_filt) = -10.2449 mV, took 10 ms.

Important parameter values in pss iteration:
    start = 0 s
    outputstart = 0 s
    stop = 20 ms
    period = 20 ms
    maxperiods = 20
    steadyratio = 10e-03
    step = 20 us
    maxstep = 100 us
    ic = all
    useprevic = no
    skipdc = no
    reltol = 100e-06
    abstol(V) = 1 uV
    abstol(I) = 1 pA
    temp = 27 C
    tnom = 27 C
    tempeffects = all
    errpreset = conservative
    method = gear2only
    lteratio = 10
    relref = sigglobal
    cmin = 0 F
    gmin = 1 pS
    rabsshort = 1 mOhm


Notice from spectre during periodic steady state analysis `pss', during Monte Carlo analysis `mc1'.
    12 warnings suppressed.


============================
`pss': time = (0 s -> 20 ms)
============================
    pss: time = 512.5 us    (2.56 %), step = 12.5 us     (62.5 m%)
    pss: time = 1.512 ms    (7.56 %), step = 12.5 us     (62.5 m%)
    pss: time = 2.512 ms    (12.6 %), step = 12.5 us     (62.5 m%)
    pss: time = 3.512 ms    (17.6 %), step = 12.5 us     (62.5 m%)
    pss: time = 4.5 ms      (22.5 %), step = 12.5 us     (62.5 m%)
    pss: time = 5.5 ms      (27.5 %), step = 12.5 us     (62.5 m%)
    pss: time = 6.5 ms      (32.5 %), step = 12.5 us     (62.5 m%)
    pss: time = 7.5 ms      (37.5 %), step = 12.5 us     (62.5 m%)
    pss: time = 8.5 ms      (42.5 %), step = 12.5 us     (62.5 m%)
    pss: time = 9.5 ms      (47.5 %), step = 12.5 us     (62.5 m%)
    pss: time = 10.5 ms     (52.5 %), step = 12.5 us     (62.5 m%)
    pss: time = 11.5 ms     (57.5 %), step = 12.5 us     (62.5 m%)
    pss: time = 12.5 ms     (62.5 %), step = 12.5 us     (62.5 m%)
    pss: time = 13.5 ms     (67.5 %), step = 12.5 us     (62.5 m%)
    pss: time = 14.5 ms     (72.5 %), step = 12.5 us     (62.5 m%)
    pss: time = 15.5 ms     (77.5 %), step = 12.5 us     (62.5 m%)
    pss: time = 16.5 ms     (82.5 %), step = 12.5 us     (62.5 m%)
    pss: time = 17.5 ms     (87.5 %), step = 12.5 us     (62.5 m%)
    pss: time = 18.5 ms     (92.5 %), step = 12.5 us     (62.5 m%)
    pss: time = 19.51 ms    (97.6 %), step = 12.5 us     (62.5 m%)
Conv norm = 212e-03, max dV(vout_filt) = 20.8917 uV, took 390 ms.


Opening the PSF file ../psf/mc1_separate/053/pss.td.pss ...

Opening the PSF file ../psf/mc1_separate/053/pss.fd.pss ...

============================
`pss': time = (0 s -> 20 ms)
============================
    pss: time = 512.5 us    (2.56 %), step = 12.5 us     (62.5 m%)
    pss: time = 1.512 ms    (7.56 %), step = 12.5 us     (62.5 m%)
    pss: time = 2.512 ms    (12.6 %), step = 12.5 us     (62.5 m%)
    pss: time = 3.512 ms    (17.6 %), step = 12.5 us     (62.5 m%)
    pss: time = 4.5 ms      (22.5 %), step = 12.5 us     (62.5 m%)
    pss: time = 5.5 ms      (27.5 %), step = 12.5 us     (62.5 m%)
    pss: time = 6.5 ms      (32.5 %), step = 12.5 us     (62.5 m%)
    pss: time = 7.5 ms      (37.5 %), step = 12.5 us     (62.5 m%)
    pss: time = 8.5 ms      (42.5 %), step = 12.5 us     (62.5 m%)
    pss: time = 9.5 ms      (47.5 %), step = 12.5 us     (62.5 m%)
    pss: time = 10.5 ms     (52.5 %), step = 12.5 us     (62.5 m%)
    pss: time = 11.5 ms     (57.5 %), step = 12.5 us     (62.5 m%)
    pss: time = 12.5 ms     (62.5 %), step = 12.5 us     (62.5 m%)
    pss: time = 13.5 ms     (67.5 %), step = 12.5 us     (62.5 m%)
    pss: time = 14.5 ms     (72.5 %), step = 12.5 us     (62.5 m%)
    pss: time = 15.5 ms     (77.5 %), step = 12.5 us     (62.5 m%)
    pss: time = 16.5 ms     (82.5 %), step = 12.5 us     (62.5 m%)
    pss: time = 17.5 ms     (87.5 %), step = 12.5 us     (62.5 m%)
    pss: time = 18.5 ms     (92.5 %), step = 12.5 us     (62.5 m%)
    pss: time = 19.51 ms    (97.6 %), step = 12.5 us     (62.5 m%)

Maximum value achieved for any signal of each quantity: 
V: V(net2) = 3.3 V
I: I(V0:p) = 6.24 uA
Initial condition solution time: CPU = 2.415 ms, elapsed = 2.4159 ms.
pss: The steady-state solution was achieved in 2 iterations.
Number of accepted pss steps =             1600
Total time required for pss analysis `pss': CPU = 824.759 ms, elapsed = 841.716 ms, util. = 98%.
Time accumulated: CPU = 7.71598 s, elapsed = 8.51561 s.
Peak resident memory used = 226 Mbytes.

modelParameter: writing model parameter values to rawfile.

Opening the PSF file ../psf/mc1_separate/053/modelParameter.info ...
element: writing instance parameter values to rawfile.

Opening the PSF file ../psf/mc1_separate/053/element.info ...
outputParameter: writing output parameter values to rawfile.

Opening the PSF file ../psf/mc1_separate/053/outputParameter.info ...
designParamVals: writing netlist parameters to rawfile.

Opening the PSFASCII file ../psf/mc1_separate/053/designParamVals.info ...
primitives: writing primitives to rawfile.

Opening the PSFASCII file ../psf/mc1_separate/053/primitives.info.primitives ...
subckts: writing subcircuits to rawfile.

Opening the PSFASCII file ../psf/mc1_separate/053/subckts.info.subckts ...
    mc1: iteration = 53          (87.5 %), step = 1            (12.5 %)
54 100.00% 

*************************************************
Transient Analysis `tran': time = (0 s -> 100 ms)
*************************************************

Opening the PSF file ../psf/mc1_separate/054/tran.tran.tran ...

Notice from spectre during IC analysis, during transient analysis `tran', during Monte Carlo analysis `mc1'.
    Bad pivoting is found during DC analysis. Option dc_pivot_check=yes is recommended for possible improvement of convergence.
Warning from spectre during check, during IC analysis, during transient analysis `tran', during Monte Carlo analysis `mc1'.
    WARNING (CMI-2943): Parameter checks have been ignored because the valid value for parameter 'trise' could not be found in 'C1'.
    WARNING (CMI-2943): Parameter checks have been ignored because the valid value for parameter 'trise' could not be found in 'I0.C8<0>_turbo_m4.C1'.
    WARNING (CMI-2943): Parameter checks have been ignored because the valid value for parameter 'trise' could not be found in 'I0.C9<0>_turbo_m8.C1'.
    WARNING (CMI-2943): Parameter checks have been ignored because the valid value for parameter 'trise' could not be found in 'I0.C7<0>_turbo_m2.C1'.
    WARNING (CMI-2943): Parameter checks have been ignored because the valid value for parameter 'trise' could not be found in 'I0.R2.CM'.
        Further occurrences of this warning will be suppressed.

Convergence achieved in 18 iterations.
DC simulation time: CPU = 2.307 ms, elapsed = 2.30789 ms.
Important parameter values:
    start = 0 s
    outputstart = 0 s
    stop = 100 ms
    step = 100 us
    maxstep = 1 ms
    ic = all
    useprevic = no
    skipdc = no
    reltol = 100e-06
    abstol(V) = 1 uV
    abstol(I) = 1 pA
    temp = 27 C
    tnom = 27 C
    tempeffects = all
    errpreset = conservative_sigglobal
    method = gear2only
    lteratio = 10
    relref = sigglobal
    cmin = 0 F
    gmin = 1 pS
    rabsshort = 1 mOhm


Notice from spectre during transient analysis `tran', during Monte Carlo analysis `mc1'.
    Multithreading is disabled due to the size of the design being too small.


Output and IC/nodeset summary:
                 save   7       (current)
                 save   32      (voltage)

    tran: time = 2.907 ms    (2.91 %), step = 934.1 us     (934 m%)
    tran: time = 7.845 ms    (7.84 %), step = 1 ms            (1 %)
    tran: time = 13.29 ms    (13.3 %), step = 871 us       (871 m%)
    tran: time = 18.21 ms    (18.2 %), step = 1 ms            (1 %)
    tran: time = 22.73 ms    (22.7 %), step = 854.6 us     (855 m%)
    tran: time = 27.56 ms    (27.6 %), step = 1 ms            (1 %)
    tran: time = 33.04 ms      (33 %), step = 862.7 us     (863 m%)
    tran: time = 37.92 ms    (37.9 %), step = 1 ms            (1 %)
    tran: time = 43.35 ms    (43.4 %), step = 873.3 us     (873 m%)
    tran: time = 48.28 ms    (48.3 %), step = 1 ms            (1 %)
    tran: time = 52.79 ms    (52.8 %), step = 856 us       (856 m%)
    tran: time = 57.62 ms    (57.6 %), step = 1 ms            (1 %)
    tran: time = 63.1 ms     (63.1 %), step = 864.5 us     (864 m%)
    tran: time = 67.99 ms      (68 %), step = 1 ms            (1 %)
    tran: time = 72.54 ms    (72.5 %), step = 851 us       (851 m%)
    tran: time = 78.34 ms    (78.3 %), step = 1 ms            (1 %)
    tran: time = 82.85 ms    (82.8 %), step = 857.4 us     (857 m%)
    tran: time = 87.69 ms    (87.7 %), step = 1 ms            (1 %)
    tran: time = 93.16 ms    (93.2 %), step = 866.5 us     (866 m%)
    tran: time = 98.06 ms    (98.1 %), step = 1 ms            (1 %)
Number of accepted tran steps =             112

Maximum value achieved for any signal of each quantity: 
V: V(net2) = 3.3 V
I: I(V0:p) = 6.411 uA

~~~~~~~~~~~~~~~~~~~~~~~~~~~~~~~~~
Post-Transient Simulation Summary
~~~~~~~~~~~~~~~~~~~~~~~~~~~~~~~~~
   -   Non-default settings that could significantly slow down simulation
          errpreset = conservative_sigglobal, default moderate
~~~~~~~~~~~~~~~~~~~~~~~~~~~~~~~~~


During simulation, the CPU load for active processors is :
         0 (97.5 %)      1 (38.5 %)      2 (75.4 %)      3 (51.4 %)
         4 (41.4 %)      5 (61.0 %)      6 (82.4 %)      7 (46.6 %)
         8 (60.3 %)      9 (37.2 %)     10 (49.5 %)     11 (56.2 %)
        12 (53.2 %)     13 (44.9 %)     14 (47.8 %)     15 (67.5 %)
        16 (86.6 %)     17 (29.4 %)     18 (59.8 %)     19 (37.4 %)
        20 (39.5 %)     21 (59.0 %)     22 (54.9 %)     23 (56.3 %)
        24 (24.7 %)     25 (100.0 %)    26 (51.1 %)     27 (37.7 %)
        28 (55.3 %)     29 (100.0 %)    30 (41.2 %)     31 (43.3 %)
        32 (41.5 %)     33 (31.3 %)     34 (43.6 %)     35 (49.6 %)
        36 (85.3 %)     37 (50.1 %)     38 (68.8 %)     39 (39.3 %)
        40 (63.0 %)     41 (45.0 %)     42 (51.8 %)     43 (39.8 %)
        44 (58.7 %)     45 (65.5 %)     46 (40.2 %)     47 (30.3 %)
        Total: 2591.1%
Initial condition solution time: CPU = 2.343 ms, elapsed = 2.34485 ms.
Intrinsic tran analysis time:    CPU = 21.473 ms, elapsed = 22.696 ms.
Total time required for tran analysis `tran': CPU = 25.843 ms, elapsed = 27.6222 ms, util. = 93.6%.
Time accumulated: CPU = 7.781 s, elapsed = 8.59263 s.
Peak resident memory used = 226 Mbytes.


Notice from spectre during transient analysis `tran', during Monte Carlo analysis `mc1'.
    12 warnings suppressed.

finalTimeOP: writing operating point information to rawfile.

Opening the PSF file ../psf/mc1_separate/054/finalTimeOP.info ...
Licensing Information:
[13:18:24.287001] Periodic Lic check successful


**************************************************
Periodic Steady-State Analysis `pss': fund = 50 Hz
**************************************************

Warning from spectre during check, during IC analysis, during periodic steady state analysis `pss', during Monte Carlo analysis `mc1'.
    WARNING (CMI-2943): Parameter checks have been ignored because the valid value for parameter 'trise' could not be found in 'C1'.
    WARNING (CMI-2943): Parameter checks have been ignored because the valid value for parameter 'trise' could not be found in 'I0.C8<0>_turbo_m4.C1'.
    WARNING (CMI-2943): Parameter checks have been ignored because the valid value for parameter 'trise' could not be found in 'I0.C9<0>_turbo_m8.C1'.
    WARNING (CMI-2943): Parameter checks have been ignored because the valid value for parameter 'trise' could not be found in 'I0.C7<0>_turbo_m2.C1'.
    WARNING (CMI-2943): Parameter checks have been ignored because the valid value for parameter 'trise' could not be found in 'I0.R2.CM'.
        Further occurrences of this warning will be suppressed.

Convergence achieved in 18 iterations.
DC simulation time: CPU = 2.374 ms, elapsed = 2.37513 ms.

==================================
pss `tstab': time = (0 s -> 20 ms)
==================================

Output and IC/nodeset summary:
                 save   7       (current)
                 save   32      (voltage)

Important parameter values in tstab integration:
    start = 0 s
    outputstart = 0 s
    stop = 20 ms
    period = 20 ms
    maxperiods = 20
    step = 20 us
    maxstep = 800 us
    ic = all
    useprevic = no
    skipdc = no
    reltol = 1e-03
    abstol(V) = 1 uV
    abstol(I) = 1 pA
    temp = 27 C
    tnom = 27 C
    tempeffects = all
    method = traponly
    lteratio = 3.5
    relref = sigglobal
    cmin = 0 F
    gmin = 1 pS
    rabsshort = 1 mOhm

    pss: time = 515.8 us    (2.58 %), step = 260.4 us      (1.3 %)
    pss: time = 2.188 ms    (10.9 %), step = 800 us          (4 %)
    pss: time = 2.988 ms    (14.9 %), step = 800 us          (4 %)
    pss: time = 3.788 ms    (18.9 %), step = 800 us          (4 %)
    pss: time = 4.588 ms    (22.9 %), step = 800 us          (4 %)
    pss: time = 6.188 ms    (30.9 %), step = 800 us          (4 %)
    pss: time = 6.988 ms    (34.9 %), step = 800 us          (4 %)
    pss: time = 7.788 ms    (38.9 %), step = 800 us          (4 %)
    pss: time = 8.588 ms    (42.9 %), step = 800 us          (4 %)
    pss: time = 10.19 ms    (50.9 %), step = 800 us          (4 %)
    pss: time = 10.99 ms    (54.9 %), step = 800 us          (4 %)
    pss: time = 11.79 ms    (58.9 %), step = 800 us          (4 %)
    pss: time = 12.59 ms    (62.9 %), step = 800 us          (4 %)
    pss: time = 14.19 ms    (70.9 %), step = 800 us          (4 %)
    pss: time = 14.99 ms    (74.9 %), step = 800 us          (4 %)
    pss: time = 15.79 ms    (78.9 %), step = 800 us          (4 %)
    pss: time = 16.59 ms    (82.9 %), step = 800 us          (4 %)
    pss: time = 18.19 ms    (90.9 %), step = 800 us          (4 %)
    pss: time = 18.99 ms    (94.9 %), step = 800 us          (4 %)
    pss: time = 20 ms        (100 %), step = 505.9 us     (2.53 %)
Total time required for tstab analysis `pss': CPU = 5.939 ms, elapsed = 5.9371 ms.
Time accumulated: CPU = 7.8025 s, elapsed = 8.63132 s.
Peak resident memory used = 226 Mbytes.

Conv norm = 29.6, max dV(vout_filt) = -10.1916 mV, took 0 s.

Important parameter values in pss iteration:
    start = 0 s
    outputstart = 0 s
    stop = 20 ms
    period = 20 ms
    maxperiods = 20
    steadyratio = 10e-03
    step = 20 us
    maxstep = 100 us
    ic = all
    useprevic = no
    skipdc = no
    reltol = 100e-06
    abstol(V) = 1 uV
    abstol(I) = 1 pA
    temp = 27 C
    tnom = 27 C
    tempeffects = all
    errpreset = conservative
    method = gear2only
    lteratio = 10
    relref = sigglobal
    cmin = 0 F
    gmin = 1 pS
    rabsshort = 1 mOhm


Notice from spectre during periodic steady state analysis `pss', during Monte Carlo analysis `mc1'.
    12 warnings suppressed.


============================
`pss': time = (0 s -> 20 ms)
============================
    pss: time = 512.5 us    (2.56 %), step = 12.5 us     (62.5 m%)
    pss: time = 1.512 ms    (7.56 %), step = 12.5 us     (62.5 m%)
    pss: time = 2.512 ms    (12.6 %), step = 12.5 us     (62.5 m%)
    pss: time = 3.512 ms    (17.6 %), step = 12.5 us     (62.5 m%)
    pss: time = 4.5 ms      (22.5 %), step = 12.5 us     (62.5 m%)
    pss: time = 5.5 ms      (27.5 %), step = 12.5 us     (62.5 m%)
    pss: time = 6.5 ms      (32.5 %), step = 12.5 us     (62.5 m%)
    pss: time = 7.5 ms      (37.5 %), step = 12.5 us     (62.5 m%)
    pss: time = 8.5 ms      (42.5 %), step = 12.5 us     (62.5 m%)
    pss: time = 9.5 ms      (47.5 %), step = 12.5 us     (62.5 m%)
    pss: time = 10.5 ms     (52.5 %), step = 12.5 us     (62.5 m%)
    pss: time = 11.5 ms     (57.5 %), step = 12.5 us     (62.5 m%)
    pss: time = 12.5 ms     (62.5 %), step = 12.5 us     (62.5 m%)
    pss: time = 13.5 ms     (67.5 %), step = 12.5 us     (62.5 m%)
    pss: time = 14.5 ms     (72.5 %), step = 12.5 us     (62.5 m%)
    pss: time = 15.5 ms     (77.5 %), step = 12.5 us     (62.5 m%)
    pss: time = 16.5 ms     (82.5 %), step = 12.5 us     (62.5 m%)
    pss: time = 17.5 ms     (87.5 %), step = 12.5 us     (62.5 m%)
    pss: time = 18.5 ms     (92.5 %), step = 12.5 us     (62.5 m%)
    pss: time = 19.51 ms    (97.6 %), step = 12.5 us     (62.5 m%)
Conv norm = 266e-03, max dV(vout_filt) = 26.2912 uV, took 380 ms.


Opening the PSF file ../psf/mc1_separate/054/pss.td.pss ...

Opening the PSF file ../psf/mc1_separate/054/pss.fd.pss ...

============================
`pss': time = (0 s -> 20 ms)
============================
    pss: time = 512.5 us    (2.56 %), step = 12.5 us     (62.5 m%)
    pss: time = 1.512 ms    (7.56 %), step = 12.5 us     (62.5 m%)
    pss: time = 2.512 ms    (12.6 %), step = 12.5 us     (62.5 m%)
    pss: time = 3.512 ms    (17.6 %), step = 12.5 us     (62.5 m%)
    pss: time = 4.5 ms      (22.5 %), step = 12.5 us     (62.5 m%)
    pss: time = 5.5 ms      (27.5 %), step = 12.5 us     (62.5 m%)
    pss: time = 6.5 ms      (32.5 %), step = 12.5 us     (62.5 m%)
    pss: time = 7.5 ms      (37.5 %), step = 12.5 us     (62.5 m%)
    pss: time = 8.5 ms      (42.5 %), step = 12.5 us     (62.5 m%)
    pss: time = 9.5 ms      (47.5 %), step = 12.5 us     (62.5 m%)
    pss: time = 10.5 ms     (52.5 %), step = 12.5 us     (62.5 m%)
    pss: time = 11.5 ms     (57.5 %), step = 12.5 us     (62.5 m%)
    pss: time = 12.5 ms     (62.5 %), step = 12.5 us     (62.5 m%)
    pss: time = 13.5 ms     (67.5 %), step = 12.5 us     (62.5 m%)
    pss: time = 14.5 ms     (72.5 %), step = 12.5 us     (62.5 m%)
    pss: time = 15.5 ms     (77.5 %), step = 12.5 us     (62.5 m%)
    pss: time = 16.5 ms     (82.5 %), step = 12.5 us     (62.5 m%)
    pss: time = 17.5 ms     (87.5 %), step = 12.5 us     (62.5 m%)
    pss: time = 18.5 ms     (92.5 %), step = 12.5 us     (62.5 m%)
    pss: time = 19.51 ms    (97.6 %), step = 12.5 us     (62.5 m%)

Maximum value achieved for any signal of each quantity: 
V: V(net2) = 3.3 V
I: I(V0:p) = 6.411 uA
Initial condition solution time: CPU = 2.416 ms, elapsed = 2.41899 ms.
pss: The steady-state solution was achieved in 2 iterations.
Number of accepted pss steps =             1600
Total time required for pss analysis `pss': CPU = 815.758 ms, elapsed = 833.8 ms, util. = 97.8%.
Time accumulated: CPU = 8.60151 s, elapsed = 9.43311 s.
Peak resident memory used = 226 Mbytes.

modelParameter: writing model parameter values to rawfile.

Opening the PSF file ../psf/mc1_separate/054/modelParameter.info ...
element: writing instance parameter values to rawfile.

Opening the PSF file ../psf/mc1_separate/054/element.info ...
outputParameter: writing output parameter values to rawfile.

Opening the PSF file ../psf/mc1_separate/054/outputParameter.info ...
designParamVals: writing netlist parameters to rawfile.

Opening the PSFASCII file ../psf/mc1_separate/054/designParamVals.info ...
primitives: writing primitives to rawfile.

Opening the PSFASCII file ../psf/mc1_separate/054/primitives.info.primitives ...
subckts: writing subcircuits to rawfile.

Opening the PSFASCII file ../psf/mc1_separate/054/subckts.info.subckts ...
    mc1: iteration = 54           (100 %), step = 1            (12.5 %)
Total time required for montecarlo analysis `mc1': CPU = 8.08615 s, elapsed = 8.39193 s, util. = 96.4%.
Time accumulated: CPU = 8.62668 s, elapsed = 9.47129 s.
Peak resident memory used = 226 Mbytes.

Licensing Information:
Lic Summary:
[13:18:25.148072] Cdslmd servers: lic08
[13:18:25.672408] Feature usage summary:
[13:18:25.672409] Virtuoso_Multi_mode_Simulation
[13:18:25.672409] Spectre_X_MMSIM_Lk


Aggregate audit (1:18:25 PM, Wed Apr 15, 2026):
Time used: CPU = 8.63 s, elapsed = 9.48 s, util. = 91.1%.
Time spent in licensing: elapsed = 191 ms.
Peak memory used = 226 Mbytes.
Simulation started at: 1:18:16 PM, Wed Apr 15, 2026, ended at: 1:18:25 PM, Wed Apr 15, 2026, with elapsed time (wall clock): 9.48 s.
spectre completes with 0 errors, 114 warnings, and 51 notices.
