
Spectre (R) Circuit Simulator
Version 24.1.0.288.isr5 64bit -- 3 Apr 2025
Copyright (C) 1989-2025 Cadence Design Systems, Inc. All rights reserved worldwide. Cadence and Spectre are registered trademarks of Cadence Design Systems, Inc. All others are the property of their respective holders.

Includes RSA BSAFE(R) Cryptographic or Security Protocol Software from RSA Security, Inc.

User: davidevi   Host: il2244vt26_davidevi   HostID: 11AC2C00   PID: 1019463
Memory  available: 3.0332 TB  physical: 3.2467 TB
Linux   : Rocky Linux release 8.10 (Green Obsidian)
CPU Type: Intel(R) Xeon(R) CPU E7-8857 v2 @ 3.00GHz
        Socket: Processors [Frequency]
        0:       0 [2999.9],  1 [1200.0],  2 [2500.0],  3 [2999.9],  4 [2999.9]
                 5 [3600.0],  6 [3600.0],  7 [2600.0],  8 [3600.0],  9 [2800.0]
                10 [1200.0], 11 [2900.0]
        1:      12 [3600.0], 13 [3600.0], 14 [3600.0], 15 [3600.0], 16 [3072.6]
                17 [3100.0], 18 [3600.0], 19 [3600.0], 20 [2999.9], 21 [1500.0]
                22 [3600.0], 23 [3600.0]
        2:      24 [2999.9], 25 [1200.0], 26 [2999.9], 27 [1200.0], 28 [1200.0]
                29 [3600.0], 30 [1200.0], 31 [2999.9], 32 [1200.0], 33 [1200.0]
                34 [2700.0], 35 [2800.0]
        3:      36 [1200.0], 37 [2999.9], 38 [1200.0], 39 [2627.2], 40 [3600.0]
                41 [2913.0], 42 [3600.0], 43 [3600.0], 44 [1200.0], 45 [1200.0]
                46 [1200.0], 47 [3600.0]
        
System load averages (1min, 5min, 15min) : 19.2 %, 21.0 %, 23.8 %
HPC is enabled


Simulating `input.scs' on il2244vt26_davidevi at 4:46:04 PM, Wed Apr 15, 2026 (process id: 1019463).
Current working directory: /home/davidevi/Desktop/myproject/Sim/VGA/VGA_1_wakeup_tb/adexl/results/data/MonteCarlo.0/2/wakeup/groupRunDataDir/netlist
Command line:
    /opt/tools/cadence/installs/SPECTRE241/tools/bin/spectre -64  \
        input.scs +escchars +log ../psf/spectre.out -format psfbin  \
        +rtsf -raw ../psf +aps +mt +lqtimeout 900 -maxw 5 -maxn 5  \
        +param /opt/pdk/ams/410/spectre/ams_range.lmts -env ade  \
        -ahdllibdir  \
        /home/davidevi/Desktop/myproject/Sim/VGA/VGA_1_wakeup_tb/adexl/results/data/MonteCarlo.0/sharedData/Job459/ahdl/input.ahdlSimDB  \
        +logstatus  \
        +adespetkn=0001089D13A302B663E41FB550AF0DF415A679A322D5069144BF588C12F604E07EF416DC01A319B562BB63D344EF02A645A302B13F9B12E677AD6AD175DB4F927FC079D15D9175FF34986BDD0AF002BA50FD7FD707E002A700AC1C841EFF40E20EA979D120F874D3349879D118F874D33498100ED833B4185D470000366D

Simulation Id: vuAV8UC5f5VbXXKX
Licensing Information:
[16:46:05.121778] Configured Lic search path (24.01-s002): 3000@lic08.ug.kth.se:29000@lic06.ug.kth.se

Licensing Information:
[16:46:05.188330] Periodic Lic check successful

Loading /opt/tools/cadence/installs/SPECTRE241/tools.lnx86/cmi/lib/64bit/5.0/libinfineon_sh.so ...
Loading /opt/tools/cadence/installs/SPECTRE241/tools.lnx86/cmi/lib/64bit/5.0/libphilips_I_sh.so ...
Loading /opt/tools/cadence/installs/SPECTRE241/tools.lnx86/cmi/lib/64bit/5.0/libphilips_sh.so ...
Loading /opt/tools/cadence/installs/SPECTRE241/tools.lnx86/cmi/lib/64bit/5.0/libsparam_sh.so ...
Loading /opt/tools/cadence/installs/SPECTRE241/tools.lnx86/cmi/lib/64bit/5.0/libstmodels_sh.so ...

Warning from spectre.
    WARNING (SPECTRE-691): This CPU processor does not support x86 advanced vector extensions instructions. This may affect math operations and slow down the simulation.

Reading file:  /home/davidevi/Desktop/myproject/Sim/VGA/VGA_1_wakeup_tb/adexl/results/data/MonteCarlo.0/2/wakeup/groupRunDataDir/netlist/input.scs
Reading file:  /opt/pdk/ams/410/spectre/ams_range.lmts

Warning from spectre during read of parameter soft limits file `/opt/pdk/ams/410/spectre/ams_range.lmts', during circuit read-in.
    WARNING (SPECTRE-8360): line 1511: `ac' is an undefined primitive device.
    WARNING (SPECTRE-8360): line 1512: `ac' is an undefined primitive device.
    WARNING (SPECTRE-8360): line 1513: `ac' is an undefined primitive device.
    WARNING (SPECTRE-8360): line 1514: `ac' is an undefined primitive device.
    WARNING (SPECTRE-8360): line 1515: `ac' is an undefined primitive device.
        Further occurrences of this warning will be suppressed.

Reading file:  /opt/tools/cadence/installs/SPECTRE241/tools.lnx86/spectre/etc/configs/spectre.cfg
Reading file:  /opt/pdk/ams/410/spectre/c35/soac/soac.scs
Reading file:  /opt/pdk/ams/410/spectre/c35/soac/processOption.scs
Reading file:  /opt/pdk/ams/410/spectre/c35/soac/process.scs
Reading file:  /opt/pdk/ams/410/spectre/c35/soac/soac.va

Warning from spectre during AHDL read-in.
    WARNING (VACOMP-2435): The environment variable CDS_AHDLCMI_ENABLE is no longer supported. Therefore, the simulator will use the default compiled C code flow.

Reading link:  /opt/tools/cadence/installs/SPECTRE241/tools.lnx86/spectre/etc/ahdl/constants.h
Reading file:  /opt/tools/cadence/installs/SPECTRE241/tools.lnx86/spectre/etc/ahdl/constants.vams
Reading link:  /opt/tools/cadence/installs/SPECTRE241/tools.lnx86/spectre/etc/ahdl/discipline.h
Reading file:  /opt/tools/cadence/installs/SPECTRE241/tools.lnx86/spectre/etc/ahdl/disciplines.vams
Reading file:  /opt/pdk/ams/410/spectre/c35/processOption/C35B4C3.scs
Reading file:  /opt/pdk/ams/410/spectre/c35/soac/cmos53.scs
Reading file:  /opt/pdk/ams/410/spectre/c35/soac/res.scs
Reading file:  /opt/pdk/ams/410/spectre/c35/soac/cap.scs
Reading file:  /opt/pdk/ams/410/spectre/c35/soac/bip.scs
Reading file:  /opt/pdk/ams/410/spectre/c35/soac/ind.scs
Reading file:  /opt/pdk/ams/410/spectre/c35/soac/esddiode.scs
Time for NDB Parsing: CPU = 196.905 ms, elapsed = 514.156 ms.
Time accumulated: CPU = 405.701 ms, elapsed = 514.159 ms.
Peak resident memory used = 175 Mbytes.

Existing shared object for module modn_ahdl is up to date.
Installed compiled interface for modn_ahdl.
Existing shared object for module modp_ahdl is up to date.
Installed compiled interface for modp_ahdl.
Existing shared object for module cpoly_ahdl is up to date.
Installed compiled interface for cpoly_ahdl.
Existing shared object for module rpolyh_ahdl is up to date.
Installed compiled interface for rpolyh_ahdl.
Existing shared object for module bsource_19b458 is up to date.
Installed compiled interface for bsource_19b458.
Time for Elaboration: CPU = 57.606 ms, elapsed = 59.5381 ms.
Time accumulated: CPU = 463.432 ms, elapsed = 573.821 ms.
Peak resident memory used = 188 Mbytes.


Notice from spectre during hierarchy flattening.
    The value 'psf' specified for the 'checklimitdest' option will no longer be supported in future releases. Use 'spectre -h' to see other recommended values for the 'checklimitdest' option.


*****************************************************************************************
* 
* INFO: AMS_processOption = C35B4C3
* 
* INFO: Valid Modules  PIP VG5 HIRES
* 
*****************************************************************************************


Notice from spectre during hierarchy flattening.
    V8: `period' has the unusually large value of 100 s.


Time for EDB Visiting: CPU = 8.555 ms, elapsed = 8.57496 ms.
Time accumulated: CPU = 472.119 ms, elapsed = 582.526 ms.
Peak resident memory used = 191 Mbytes.

Loading /opt/tools/cadence/installs/SPECTRE241/tools.lnx86/mdl/lib/64bit/libSpectreEH_sh.so ...

Warning from spectre during initial setup.
    WARNING (SPECTRE-16460): SOAC_cvarm_vspsub:Specified subcircuit master `cvarm' was not found.
    WARNING (SPECTRE-16462): SOAC_cvarm_vspsub:Error in specification of subcircuit master. Assert is ignored.
    WARNING (SPECTRE-16460): SOAC_cvarm_vbs:Specified subcircuit master `cvarm' was not found.
    WARNING (SPECTRE-16462): SOAC_cvarm_vbs:Error in specification of subcircuit master. Assert is ignored.
    WARNING (SPECTRE-16460): SOAC_cvarm_vgb:Specified subcircuit master `cvarm' was not found.
    WARNING (SPECTRE-16462): SOAC_cvarm_vgb:Error in specification of subcircuit master. Assert is ignored.
    WARNING (SPECTRE-16460): SOAC_cvart_vspsub:Specified subcircuit master `cvart' was not found.
    WARNING (SPECTRE-16462): SOAC_cvart_vspsub:Error in specification of subcircuit master. Assert is ignored.
    WARNING (SPECTRE-16460): SOAC_cvart_vbs:Specified subcircuit master `cvart' was not found.
        Further occurrences of this warning will be suppressed.
    WARNING (SPECTRE-16462): SOAC_cvart_vbs:Error in specification of subcircuit master. Assert is ignored.
        Further occurrences of this warning will be suppressed.
Notice from spectre during topology check.
    Only one connection to the following 54 nodes:
        I0.MN6.psub!
        I0.MN5.psub!
        I0.MN4.psub!
        I0.MN3.psub!
        I0.MN2.psub!
        Further occurrences of this notice will be suppressed.
Notice from spectre during initial setup.
    Multithreading is disabled due to the size of the design being too small.


Netlist title:
        // Point Netlist Generated on: Apr 15 16:46:04 2026


Global user options:
         psfversion = 1.4.0
            vabstol = 1e-06
            iabstol = 1e-12
               temp = -40
           homotopy = 5
              limit = delta
         compatible = spice2
               gmin = 1e-12
             rforce = 1
           maxnotes = 5
           maxwarns = 5
             digits = 5
               cols = 80
             pivrel = 0.001
           sensfile = ../psf/sens.output
     checklimitdest = psf
     enable_pre_ver = yes
      ignorezerovar = yes
               save = allpub
             reltol = 0.0001
               tnom = 27
             scalem = 1
              scale = 1

Scoped user options:

Circuit inventory:
              nodes 88
            bsim3v3 35    
     bsource_19b458 2     
          capacitor 38    
         cpoly_ahdl 17    
            isource 1     
          modn_ahdl 19    
          modp_ahdl 16    
           resistor 1     
        rpolyh_ahdl 2     
            vsource 8     

Analysis and control statement inventory:
               info 7     
         montecarlo 1     
               tran 1     

Output statements:
             .probe 0     
           .measure 0     
               save 0     

Design checks inventory:
          paramtest 55    
             assert 175   


Notice from spectre during initial setup.
    APS enabled.
    1 notice suppressed.
    72 warnings suppressed.

Time for parsing: CPU = 17.528 ms, elapsed = 666.875 ms.
Time accumulated: CPU = 489.775 ms, elapsed = 1.24953 s.
Peak resident memory used = 198 Mbytes.

~~~~~~~~~~~~~~~~~~~~~~
Pre-Simulation Summary
~~~~~~~~~~~~~~~~~~~~~~
   -   (APS) Multi-threading. The recommended number of threads is 1, consider adding +mt=1 on command line.
~~~~~~~~~~~~~~~~~~~~~~

**************************************************
Monte Carlo Analysis `mc1': iteration = (1 -> 100)
**************************************************
Important parameter values:
    seed = 12345
    sampling = lds
    variations = all
    firstrun = 1
    numruns = 100
    nullmfactorcorrelation = no
    donominal = yes
    method = standard

**** Performing nominal run for `mc1'

Notice from spectre during transient analysis `tran', during Monte Carlo analysis `mc1'.
    No checklimit analysis defined for asserts. A default checklimit analysis 'SpectreChecklimitAnal' has been created with all asserts enabled.


***********************************************
Transient Analysis `tran': time = (0 s -> 50 s)
***********************************************

Warning from spectre during check, during IC analysis, during transient analysis `tran', during Monte Carlo analysis `mc1'.
    WARNING (CMI-2943): Parameter checks have been ignored because the valid value for parameter 'trise' could not be found in 'C1'.
    WARNING (CMI-2943): Parameter checks have been ignored because the valid value for parameter 'trise' could not be found in 'I0.R2.CM'.
    WARNING (CMI-2943): Parameter checks have been ignored because the valid value for parameter 'trise' could not be found in 'I0.R2.CS1'.
    WARNING (CMI-2943): Parameter checks have been ignored because the valid value for parameter 'trise' could not be found in 'I0.R2.CS0'.
    WARNING (CMI-2943): Parameter checks have been ignored because the valid value for parameter 'trise' could not be found in 'I0.C3.C1'.
        Further occurrences of this warning will be suppressed.

Convergence achieved in 12 iterations.
DC simulation time: CPU = 2.965 ms, elapsed = 2.96617 ms.

Opening the PSF file ../psf/nom/tran.tran.tran ...
Important parameter values:
    start = 0 s
    outputstart = 0 s
    stop = 50 s
    step = 50 ms
    maxstep = 500 ms
    ic = all
    useprevic = no
    skipdc = no
    reltol = 10e-06
    abstol(V) = 1 uV
    abstol(I) = 1 pA
    temp = -40 C
    tnom = 27 C
    tempeffects = all
    errpreset = conservative
    method = gear2only
    lteratio = 10
    relref = alllocal
    cmin = 0 F
    gmin = 1 pS
    rabsshort = 1 mOhm


Notice from spectre during transient analysis `tran', during Monte Carlo analysis `mc1'.
    Multithreading is disabled due to the size of the design being too small.


Output and IC/nodeset summary:
                 save   8       (current)
                 save   87      (voltage)

    tran: time = 1.296 s     (2.59 %), step = 112.3 ms     (225 m%)
    tran: time = 3.836 s     (7.67 %), step = 295.9 ms     (592 m%)
    tran: time = 6.704 s     (13.4 %), step = 500 ms          (1 %)
    tran: time = 9.204 s     (18.4 %), step = 500 ms          (1 %)
    tran: time = 11.7 s      (23.4 %), step = 500 ms          (1 %)
    tran: time = 14.2 s      (28.4 %), step = 500 ms          (1 %)
    tran: time = 16.7 s      (33.4 %), step = 500 ms          (1 %)
    tran: time = 19.2 s      (38.4 %), step = 500 ms          (1 %)
    tran: time = 21.7 s      (43.4 %), step = 500 ms          (1 %)
    tran: time = 24.2 s      (48.4 %), step = 500 ms          (1 %)
    tran: time = 26.7 s      (53.4 %), step = 500 ms          (1 %)
    tran: time = 29.2 s      (58.4 %), step = 500 ms          (1 %)
    tran: time = 31.7 s      (63.4 %), step = 500 ms          (1 %)
    tran: time = 34.2 s      (68.4 %), step = 500 ms          (1 %)
    tran: time = 36.3 s      (72.6 %), step = 230.8 ms     (462 m%)
    tran: time = 38.89 s     (77.8 %), step = 140.2 ms     (280 m%)
    tran: time = 41.65 s     (83.3 %), step = 449.7 ms     (899 m%)
    tran: time = 44.07 s     (88.1 %), step = 500 ms          (1 %)
    tran: time = 46.57 s     (93.1 %), step = 500 ms          (1 %)
    tran: time = 49.07 s     (98.1 %), step = 500 ms          (1 %)
Number of accepted tran steps =             650

Maximum value achieved for any signal of each quantity: 
V: V(vout_filt) = 3.3 V
I: I(V8:p) = 6.462 uA

~~~~~~~~~~~~~~~~~~~~~~~~~~~~~~~~~
Post-Transient Simulation Summary
~~~~~~~~~~~~~~~~~~~~~~~~~~~~~~~~~
   -   To further speed up simulation, consider
          add ++aps on command line
   -   Non-default settings that could significantly slow down simulation
          errpreset = conservative, default moderate
          reltol = 10e-06, default 100e-06 (conservative)
~~~~~~~~~~~~~~~~~~~~~~~~~~~~~~~~~


During simulation, the CPU load for active processors is :
         0 (6.5 %)       1 (20.0 %)      2 (29.2 %)      3 (3.2 %)
         4 (100.0 %)     5 (3.9 %)       6 (32.9 %)      7 (4.6 %)
         8 (9.2 %)       9 (5.9 %)      10 (13.5 %)     11 (17.3 %)
        12 (4.5 %)      13 (34.2 %)     14 (3.2 %)      15 (16.2 %)
        16 (35.5 %)     17 (4.5 %)      18 (8.3 %)      19 (10.5 %)
        20 (100.0 %)    21 (3.2 %)      22 (2.6 %)      23 (6.5 %)
        24 (100.0 %)    25 (5.1 %)      26 (4.5 %)      27 (3.9 %)
        28 (6.5 %)      29 (6.5 %)      30 (33.3 %)     31 (100.0 %)
        32 (4.6 %)      33 (42.0 %)     34 (5.3 %)      35 (6.4 %)
        36 (46.8 %)     37 (9.7 %)      38 (2.6 %)      39 (11.6 %)
        40 (7.7 %)      41 (4.5 %)      42 (1.3 %)      43 (31.8 %)
        44 (2.6 %)      45 (22.4 %)     46 (5.1 %)      47 (4.5 %)
        Total: 944.0%
Initial condition solution time: CPU = 3.006 ms, elapsed = 3.00813 ms.
Intrinsic tran analysis time:    CPU = 395.741 ms, elapsed = 397.441 ms.
Total time required for tran analysis `tran': CPU = 482.682 ms, elapsed = 488.128 ms, util. = 98.9%.
Time accumulated: CPU = 998.761 ms, elapsed = 1.76533 s.
Peak resident memory used = 210 Mbytes.


Notice from spectre during transient analysis `tran', during Monte Carlo analysis `mc1'.
    34 warnings suppressed.

finalTimeOP: writing operating point information to rawfile.

Opening the PSF file ../psf/nom/finalTimeOP.info ...
modelParameter: writing model parameter values to rawfile.

Opening the PSF file ../psf/nom/modelParameter.info ...
element: writing instance parameter values to rawfile.

Opening the PSF file ../psf/nom/element.info ...
outputParameter: writing output parameter values to rawfile.

Opening the PSF file ../psf/nom/outputParameter.info ...
designParamVals: writing netlist parameters to rawfile.

Opening the PSFASCII file ../psf/nom/designParamVals.info ...
primitives: writing primitives to rawfile.

Opening the PSFASCII file ../psf/nom/primitives.info.primitives ...
subckts: writing subcircuits to rawfile.

Opening the PSFASCII file ../psf/nom/subckts.info.subckts ...
Opening iteration number and data-directory mapping file:  /home/davidevi/Desktop/myproject/Sim/VGA/VGA_1_wakeup_tb/adexl/results/data/MonteCarlo.0/2/wakeup/groupRunDataDir/netlist/../psf/mc1.mapping

Statistical parameters:
    Defined process parameters: 629
    Defined mismatch parameters (subckt based): 86
    Non-referenced mismatch parameters: 80
    Number of random variables: 718
    Gaussian truncation for process parameters: 4.00 sigma
    Gaussian truncation for mismatch parameters: 4.00 sigma


Opening the PSF file ../psf/mc1_tran.montecarlo ...

Opening the PSF file ../psf/mc1_finalTimeOP.montecarlo ...

Opening the PSF file ../psf/mc1_modelParameter.montecarlo ...

Opening the PSF file ../psf/mc1_element.montecarlo ...

Opening the PSF file ../psf/mc1_outputParameter.montecarlo ...

Opening the PSF file ../psf/mc1_designParamVals.montecarlo ...

Opening the PSF file ../psf/mc1_primitives.montecarlo ...

Opening the PSF file ../psf/mc1_subckts.montecarlo ...

**** Performing monte carlo loop for `mc1'

1   0.00% 

*****************************************************************************************
* 
* INFO: AMS_processOption = C35B4C3
* 
* INFO: Valid Modules  PIP VG5 HIRES
* 
*****************************************************************************************


Notice from spectre at iteration = 1 during Monte Carlo analysis `mc1'.
    V8: `period' has the unusually large value of 100 s.


***********************************************
Transient Analysis `tran': time = (0 s -> 50 s)
***********************************************

Opening the PSF file ../psf/mc1_separate/001/tran.tran.tran ...

Warning from spectre at iteration = 1 during check, during IC analysis, during transient analysis `tran', during Monte Carlo analysis `mc1'.
    WARNING (CMI-2943): Parameter checks have been ignored because the valid value for parameter 'trise' could not be found in 'C1'.
    WARNING (CMI-2943): Parameter checks have been ignored because the valid value for parameter 'trise' could not be found in 'I0.R2.CM'.
    WARNING (CMI-2943): Parameter checks have been ignored because the valid value for parameter 'trise' could not be found in 'I0.R2.CS1'.
    WARNING (CMI-2943): Parameter checks have been ignored because the valid value for parameter 'trise' could not be found in 'I0.R2.CS0'.
    WARNING (CMI-2943): Parameter checks have been ignored because the valid value for parameter 'trise' could not be found in 'I0.C3.C1'.
        Further occurrences of this warning will be suppressed.

Convergence achieved in 12 iterations.
DC simulation time: CPU = 2.673 ms, elapsed = 2.67291 ms.
Important parameter values:
    start = 0 s
    outputstart = 0 s
    stop = 50 s
    step = 50 ms
    maxstep = 500 ms
    ic = all
    useprevic = no
    skipdc = no
    reltol = 10e-06
    abstol(V) = 1 uV
    abstol(I) = 1 pA
    temp = -40 C
    tnom = 27 C
    tempeffects = all
    errpreset = conservative
    method = gear2only
    lteratio = 10
    relref = alllocal
    cmin = 0 F
    gmin = 1 pS
    rabsshort = 1 mOhm


Notice from spectre at iteration = 1 during transient analysis `tran', during Monte Carlo analysis `mc1'.
    Multithreading is disabled due to the size of the design being too small.


Output and IC/nodeset summary:
                 save   8       (current)
                 save   87      (voltage)

    tran: time = 1.274 s     (2.55 %), step = 120.4 ms     (241 m%)
    tran: time = 3.983 s     (7.97 %), step = 314.9 ms     (630 m%)
    tran: time = 6.493 s       (13 %), step = 500 ms          (1 %)
    tran: time = 8.993 s       (18 %), step = 500 ms          (1 %)
    tran: time = 11.49 s       (23 %), step = 500 ms          (1 %)
    tran: time = 13.99 s       (28 %), step = 500 ms          (1 %)
    tran: time = 16.49 s       (33 %), step = 500 ms          (1 %)
    tran: time = 18.99 s       (38 %), step = 500 ms          (1 %)
    tran: time = 21.49 s       (43 %), step = 500 ms          (1 %)
    tran: time = 23.99 s       (48 %), step = 500 ms          (1 %)
    tran: time = 26.49 s       (53 %), step = 500 ms          (1 %)
    tran: time = 28.99 s       (58 %), step = 500 ms          (1 %)
    tran: time = 31.49 s       (63 %), step = 500 ms          (1 %)
    tran: time = 33.99 s       (68 %), step = 500 ms          (1 %)
    tran: time = 36.38 s     (72.8 %), step = 415.1 ms     (830 m%)
    tran: time = 38.75 s     (77.5 %), step = 1.562 ms    (3.12 m%)
    tran: time = 41.67 s     (83.3 %), step = 427.1 ms     (854 m%)
    tran: time = 43.94 s     (87.9 %), step = 476.5 ms     (953 m%)
    tran: time = 46.43 s     (92.9 %), step = 500 ms          (1 %)
    tran: time = 48.93 s     (97.9 %), step = 500 ms          (1 %)
Number of accepted tran steps =             649

Maximum value achieved for any signal of each quantity: 
V: V(vout_filt) = 3.3 V
I: I(V8:p) = 6.355 uA

~~~~~~~~~~~~~~~~~~~~~~~~~~~~~~~~~
Post-Transient Simulation Summary
~~~~~~~~~~~~~~~~~~~~~~~~~~~~~~~~~
   -   To further speed up simulation, consider
          add ++aps on command line
   -   Non-default settings that could significantly slow down simulation
          errpreset = conservative, default moderate
          reltol = 10e-06, default 100e-06 (conservative)
~~~~~~~~~~~~~~~~~~~~~~~~~~~~~~~~~


During simulation, the CPU load for active processors is :
         0 (5.7 %)       1 (18.3 %)      2 (45.1 %)      3 (3.7 %)
         4 (100.0 %)     5 (3.7 %)       6 (24.3 %)      7 (4.2 %)
         8 (6.7 %)       9 (8.0 %)      10 (10.6 %)     11 (18.3 %)
        12 (4.2 %)      13 (25.8 %)     14 (3.3 %)      15 (39.5 %)
        16 (51.2 %)     17 (8.4 %)      18 (6.9 %)      19 (8.5 %)
        20 (100.0 %)    21 (2.8 %)      22 (2.3 %)      23 (5.2 %)
        24 (100.0 %)    25 (4.1 %)      26 (3.3 %)      27 (2.8 %)
        28 (5.6 %)      29 (6.0 %)      30 (24.8 %)     31 (75.1 %)
        32 (3.8 %)      33 (57.3 %)     34 (4.7 %)      35 (5.1 %)
        36 (61.0 %)     37 (7.5 %)      38 (4.2 %)      39 (8.9 %)
        40 (6.5 %)      41 (3.7 %)      42 (1.9 %)      43 (23.0 %)
        44 (3.7 %)      45 (22.2 %)     46 (3.7 %)      47 (3.3 %)
        Total: 948.8%
Initial condition solution time: CPU = 2.718 ms, elapsed = 2.71988 ms.
Intrinsic tran analysis time:    CPU = 396.323 ms, elapsed = 398.086 ms.
Total time required for tran analysis `tran': CPU = 401.808 ms, elapsed = 404.179 ms, util. = 99.4%.
Time accumulated: CPU = 1.48257 s, elapsed = 2.26739 s.
Peak resident memory used = 213 Mbytes.


Notice from spectre during transient analysis `tran', during Monte Carlo analysis `mc1'.
    34 warnings suppressed.

finalTimeOP: writing operating point information to rawfile.

Opening the PSF file ../psf/mc1_separate/001/finalTimeOP.info ...
modelParameter: writing model parameter values to rawfile.

Opening the PSF file ../psf/mc1_separate/001/modelParameter.info ...
element: writing instance parameter values to rawfile.

Opening the PSF file ../psf/mc1_separate/001/element.info ...
outputParameter: writing output parameter values to rawfile.

Opening the PSF file ../psf/mc1_separate/001/outputParameter.info ...
designParamVals: writing netlist parameters to rawfile.

Opening the PSFASCII file ../psf/mc1_separate/001/designParamVals.info ...
primitives: writing primitives to rawfile.

Opening the PSFASCII file ../psf/mc1_separate/001/primitives.info.primitives ...
subckts: writing subcircuits to rawfile.

Opening the PSFASCII file ../psf/mc1_separate/001/subckts.info.subckts ...
2   1.01% 

*****************************************************************************************
* 
* INFO: AMS_processOption = C35B4C3
* 
* INFO: Valid Modules  PIP VG5 HIRES
* 
*****************************************************************************************


Notice from spectre during Monte Carlo analysis `mc1'.
    V8: `period' has the unusually large value of 100 s.


***********************************************
Transient Analysis `tran': time = (0 s -> 50 s)
***********************************************

Opening the PSF file ../psf/mc1_separate/002/tran.tran.tran ...

Warning from spectre during check, during IC analysis, during transient analysis `tran', during Monte Carlo analysis `mc1'.
    WARNING (CMI-2943): Parameter checks have been ignored because the valid value for parameter 'trise' could not be found in 'C1'.
    WARNING (CMI-2943): Parameter checks have been ignored because the valid value for parameter 'trise' could not be found in 'I0.R2.CM'.
    WARNING (CMI-2943): Parameter checks have been ignored because the valid value for parameter 'trise' could not be found in 'I0.R2.CS1'.
    WARNING (CMI-2943): Parameter checks have been ignored because the valid value for parameter 'trise' could not be found in 'I0.R2.CS0'.
    WARNING (CMI-2943): Parameter checks have been ignored because the valid value for parameter 'trise' could not be found in 'I0.C3.C1'.
        Further occurrences of this warning will be suppressed.

Convergence achieved in 12 iterations.
DC simulation time: CPU = 2.58 ms, elapsed = 2.57993 ms.
Important parameter values:
    start = 0 s
    outputstart = 0 s
    stop = 50 s
    step = 50 ms
    maxstep = 500 ms
    ic = all
    useprevic = no
    skipdc = no
    reltol = 10e-06
    abstol(V) = 1 uV
    abstol(I) = 1 pA
    temp = -40 C
    tnom = 27 C
    tempeffects = all
    errpreset = conservative
    method = gear2only
    lteratio = 10
    relref = alllocal
    cmin = 0 F
    gmin = 1 pS
    rabsshort = 1 mOhm


Notice from spectre during transient analysis `tran', during Monte Carlo analysis `mc1'.
    Multithreading is disabled due to the size of the design being too small.


Output and IC/nodeset summary:
                 save   8       (current)
                 save   87      (voltage)

    tran: time = 1.37 s      (2.74 %), step = 122.9 ms     (246 m%)
    tran: time = 3.825 s     (7.65 %), step = 299.6 ms     (599 m%)
    tran: time = 6.72 s      (13.4 %), step = 500 ms          (1 %)
    tran: time = 9.22 s      (18.4 %), step = 500 ms          (1 %)
    tran: time = 11.72 s     (23.4 %), step = 500 ms          (1 %)
    tran: time = 14.22 s     (28.4 %), step = 500 ms          (1 %)
    tran: time = 16.72 s     (33.4 %), step = 500 ms          (1 %)
    tran: time = 19.22 s     (38.4 %), step = 500 ms          (1 %)
    tran: time = 21.72 s     (43.4 %), step = 500 ms          (1 %)
    tran: time = 24.22 s     (48.4 %), step = 500 ms          (1 %)
    tran: time = 26.72 s     (53.4 %), step = 500 ms          (1 %)
    tran: time = 29.22 s     (58.4 %), step = 500 ms          (1 %)
    tran: time = 31.72 s     (63.4 %), step = 500 ms          (1 %)
    tran: time = 34.22 s     (68.4 %), step = 500 ms          (1 %)
    tran: time = 36.41 s     (72.8 %), step = 341.9 ms     (684 m%)
    tran: time = 38.8 s      (77.6 %), step = 47.42 ms    (94.8 m%)
    tran: time = 41.51 s       (83 %), step = 433.3 ms     (867 m%)
    tran: time = 43.82 s     (87.6 %), step = 486.6 ms     (973 m%)
    tran: time = 46.32 s     (92.6 %), step = 500 ms          (1 %)
    tran: time = 48.82 s     (97.6 %), step = 500 ms          (1 %)
Number of accepted tran steps =             650

Maximum value achieved for any signal of each quantity: 
V: V(vout_filt) = 3.3 V
I: I(V8:p) = 6.41 uA

~~~~~~~~~~~~~~~~~~~~~~~~~~~~~~~~~
Post-Transient Simulation Summary
~~~~~~~~~~~~~~~~~~~~~~~~~~~~~~~~~
   -   To further speed up simulation, consider
          add ++aps on command line
   -   Non-default settings that could significantly slow down simulation
          errpreset = conservative, default moderate
          reltol = 10e-06, default 100e-06 (conservative)
~~~~~~~~~~~~~~~~~~~~~~~~~~~~~~~~~


During simulation, the CPU load for active processors is :
         0 (5.1 %)       1 (15.5 %)      2 (54.0 %)      3 (3.8 %)
         4 (100.0 %)     5 (3.8 %)       6 (20.1 %)      7 (4.6 %)
         8 (7.0 %)       9 (7.7 %)      10 (10.7 %)     11 (16.3 %)
        12 (4.6 %)      13 (21.7 %)     14 (3.5 %)      15 (50.2 %)
        16 (46.4 %)     17 (6.9 %)      18 (11.5 %)     19 (7.4 %)
        20 (100.0 %)    21 (3.1 %)      22 (15.4 %)     23 (6.9 %)
        24 (100.0 %)    25 (3.4 %)      26 (3.1 %)      27 (2.3 %)
        28 (5.7 %)      29 (5.0 %)      30 (21.5 %)     31 (65.0 %)
        32 (4.6 %)      33 (64.3 %)     34 (4.7 %)      35 (5.3 %)
        36 (67.2 %)     37 (6.9 %)      38 (4.6 %)      39 (9.2 %)
        40 (7.6 %)      41 (3.4 %)      42 (2.3 %)      43 (21.1 %)
        44 (3.5 %)      45 (23.2 %)     46 (3.5 %)      47 (3.1 %)
        Total: 966.6%
Initial condition solution time: CPU = 2.627 ms, elapsed = 2.62904 ms.
Intrinsic tran analysis time:    CPU = 400.862 ms, elapsed = 402.302 ms.
Total time required for tran analysis `tran': CPU = 406.045 ms, elapsed = 408.223 ms, util. = 99.5%.
Time accumulated: CPU = 1.93012 s, elapsed = 2.7303 s.
Peak resident memory used = 214 Mbytes.


Notice from spectre during transient analysis `tran', during Monte Carlo analysis `mc1'.
    34 warnings suppressed.

finalTimeOP: writing operating point information to rawfile.

Opening the PSF file ../psf/mc1_separate/002/finalTimeOP.info ...
modelParameter: writing model parameter values to rawfile.

Opening the PSF file ../psf/mc1_separate/002/modelParameter.info ...
element: writing instance parameter values to rawfile.

Opening the PSF file ../psf/mc1_separate/002/element.info ...
outputParameter: writing output parameter values to rawfile.

Opening the PSF file ../psf/mc1_separate/002/outputParameter.info ...
designParamVals: writing netlist parameters to rawfile.

Opening the PSFASCII file ../psf/mc1_separate/002/designParamVals.info ...
primitives: writing primitives to rawfile.

Opening the PSFASCII file ../psf/mc1_separate/002/primitives.info.primitives ...
subckts: writing subcircuits to rawfile.

Opening the PSFASCII file ../psf/mc1_separate/002/subckts.info.subckts ...
3   2.02% 

*****************************************************************************************
* 
* INFO: AMS_processOption = C35B4C3
* 
* INFO: Valid Modules  PIP VG5 HIRES
* 
*****************************************************************************************


Notice from spectre during Monte Carlo analysis `mc1'.
    V8: `period' has the unusually large value of 100 s.


***********************************************
Transient Analysis `tran': time = (0 s -> 50 s)
***********************************************

Opening the PSF file ../psf/mc1_separate/003/tran.tran.tran ...

Warning from spectre during check, during IC analysis, during transient analysis `tran', during Monte Carlo analysis `mc1'.
    WARNING (CMI-2943): Parameter checks have been ignored because the valid value for parameter 'trise' could not be found in 'C1'.
    WARNING (CMI-2943): Parameter checks have been ignored because the valid value for parameter 'trise' could not be found in 'I0.R2.CM'.
    WARNING (CMI-2943): Parameter checks have been ignored because the valid value for parameter 'trise' could not be found in 'I0.R2.CS1'.
    WARNING (CMI-2943): Parameter checks have been ignored because the valid value for parameter 'trise' could not be found in 'I0.R2.CS0'.
    WARNING (CMI-2943): Parameter checks have been ignored because the valid value for parameter 'trise' could not be found in 'I0.C3.C1'.
        Further occurrences of this warning will be suppressed.

Convergence achieved in 12 iterations.
DC simulation time: CPU = 2.58 ms, elapsed = 2.58112 ms.
Important parameter values:
    start = 0 s
    outputstart = 0 s
    stop = 50 s
    step = 50 ms
    maxstep = 500 ms
    ic = all
    useprevic = no
    skipdc = no
    reltol = 10e-06
    abstol(V) = 1 uV
    abstol(I) = 1 pA
    temp = -40 C
    tnom = 27 C
    tempeffects = all
    errpreset = conservative
    method = gear2only
    lteratio = 10
    relref = alllocal
    cmin = 0 F
    gmin = 1 pS
    rabsshort = 1 mOhm


Notice from spectre during transient analysis `tran', during Monte Carlo analysis `mc1'.
    Multithreading is disabled due to the size of the design being too small.


Output and IC/nodeset summary:
                 save   8       (current)
                 save   87      (voltage)

    tran: time = 1.289 s     (2.58 %), step = 103.7 ms     (207 m%)
    tran: time = 3.951 s      (7.9 %), step = 299 ms       (598 m%)
    tran: time = 6.354 s     (12.7 %), step = 487 ms       (974 m%)
    tran: time = 8.854 s     (17.7 %), step = 500 ms          (1 %)
    tran: time = 11.35 s     (22.7 %), step = 500 ms          (1 %)
    tran: time = 13.85 s     (27.7 %), step = 500 ms          (1 %)
    tran: time = 16.35 s     (32.7 %), step = 500 ms          (1 %)
    tran: time = 18.85 s     (37.7 %), step = 500 ms          (1 %)
    tran: time = 21.35 s     (42.7 %), step = 500 ms          (1 %)
    tran: time = 23.85 s     (47.7 %), step = 500 ms          (1 %)
    tran: time = 26.35 s     (52.7 %), step = 500 ms          (1 %)
    tran: time = 28.85 s     (57.7 %), step = 500 ms          (1 %)
    tran: time = 31.35 s     (62.7 %), step = 500 ms          (1 %)
    tran: time = 34 s          (68 %), step = 331.9 ms     (664 m%)
    tran: time = 36.25 s     (72.5 %), step = 34.6 ms     (69.2 m%)
    tran: time = 39.03 s     (78.1 %), step = 432.7 ms     (865 m%)
    tran: time = 41.33 s     (82.7 %), step = 485.7 ms     (971 m%)
    tran: time = 43.83 s     (87.7 %), step = 500 ms          (1 %)
    tran: time = 46.33 s     (92.7 %), step = 500 ms          (1 %)
    tran: time = 48.83 s     (97.7 %), step = 500 ms          (1 %)
Number of accepted tran steps =             660

Maximum value achieved for any signal of each quantity: 
V: V(vout_filt) = 3.3 V
I: I(V8:p) = 6.278 uA

~~~~~~~~~~~~~~~~~~~~~~~~~~~~~~~~~
Post-Transient Simulation Summary
~~~~~~~~~~~~~~~~~~~~~~~~~~~~~~~~~
   -   To further speed up simulation, consider
          add ++aps on command line
   -   Non-default settings that could significantly slow down simulation
          errpreset = conservative, default moderate
          reltol = 10e-06, default 100e-06 (conservative)
~~~~~~~~~~~~~~~~~~~~~~~~~~~~~~~~~


During simulation, the CPU load for active processors is :
         0 (4.3 %)       1 (13.2 %)      2 (60.7 %)      3 (3.3 %)
         4 (100.0 %)     5 (3.6 %)       6 (17.0 %)      7 (6.2 %)
         8 (6.2 %)       9 (10.7 %)     10 (9.7 %)      11 (14.2 %)
        12 (5.2 %)      13 (18.8 %)     14 (3.6 %)      15 (57.8 %)
        16 (39.8 %)     17 (6.5 %)      18 (10.7 %)     19 (7.2 %)
        20 (100.0 %)    21 (3.3 %)      22 (27.9 %)     23 (7.2 %)
        24 (100.0 %)    25 (3.2 %)      26 (3.0 %)      27 (2.3 %)
        28 (18.8 %)     29 (4.9 %)      30 (18.3 %)     31 (64.1 %)
        32 (5.9 %)      33 (62.3 %)     34 (5.9 %)      35 (5.2 %)
        36 (71.6 %)     37 (7.2 %)      38 (18.5 %)     39 (22.7 %)
        40 (8.1 %)      41 (3.6 %)      42 (2.3 %)      43 (18.0 %)
        44 (3.9 %)      45 (23.0 %)     46 (3.3 %)      47 (2.9 %)
        Total: 1016.3%
Initial condition solution time: CPU = 2.637 ms, elapsed = 2.63906 ms.
Intrinsic tran analysis time:    CPU = 408.646 ms, elapsed = 410.153 ms.
Total time required for tran analysis `tran': CPU = 414.068 ms, elapsed = 416.244 ms, util. = 99.5%.
Time accumulated: CPU = 2.38581 s, elapsed = 3.19935 s.
Peak resident memory used = 214 Mbytes.


Notice from spectre during transient analysis `tran', during Monte Carlo analysis `mc1'.
    34 warnings suppressed.

finalTimeOP: writing operating point information to rawfile.

Opening the PSF file ../psf/mc1_separate/003/finalTimeOP.info ...
modelParameter: writing model parameter values to rawfile.

Opening the PSF file ../psf/mc1_separate/003/modelParameter.info ...
element: writing instance parameter values to rawfile.

Opening the PSF file ../psf/mc1_separate/003/element.info ...
outputParameter: writing output parameter values to rawfile.

Opening the PSF file ../psf/mc1_separate/003/outputParameter.info ...
designParamVals: writing netlist parameters to rawfile.

Opening the PSFASCII file ../psf/mc1_separate/003/designParamVals.info ...
primitives: writing primitives to rawfile.

Opening the PSFASCII file ../psf/mc1_separate/003/primitives.info.primitives ...
subckts: writing subcircuits to rawfile.

Opening the PSFASCII file ../psf/mc1_separate/003/subckts.info.subckts ...
4   3.03% 

*****************************************************************************************
* 
* INFO: AMS_processOption = C35B4C3
* 
* INFO: Valid Modules  PIP VG5 HIRES
* 
*****************************************************************************************


Notice from spectre during Monte Carlo analysis `mc1'.
    V8: `period' has the unusually large value of 100 s.


***********************************************
Transient Analysis `tran': time = (0 s -> 50 s)
***********************************************

Opening the PSF file ../psf/mc1_separate/004/tran.tran.tran ...

Warning from spectre during check, during IC analysis, during transient analysis `tran', during Monte Carlo analysis `mc1'.
    WARNING (CMI-2943): Parameter checks have been ignored because the valid value for parameter 'trise' could not be found in 'C1'.
    WARNING (CMI-2943): Parameter checks have been ignored because the valid value for parameter 'trise' could not be found in 'I0.R2.CM'.
    WARNING (CMI-2943): Parameter checks have been ignored because the valid value for parameter 'trise' could not be found in 'I0.R2.CS1'.
    WARNING (CMI-2943): Parameter checks have been ignored because the valid value for parameter 'trise' could not be found in 'I0.R2.CS0'.
    WARNING (CMI-2943): Parameter checks have been ignored because the valid value for parameter 'trise' could not be found in 'I0.C3.C1'.
        Further occurrences of this warning will be suppressed.

Convergence achieved in 12 iterations.
DC simulation time: CPU = 2.396 ms, elapsed = 2.39706 ms.
Important parameter values:
    start = 0 s
    outputstart = 0 s
    stop = 50 s
    step = 50 ms
    maxstep = 500 ms
    ic = all
    useprevic = no
    skipdc = no
    reltol = 10e-06
    abstol(V) = 1 uV
    abstol(I) = 1 pA
    temp = -40 C
    tnom = 27 C
    tempeffects = all
    errpreset = conservative
    method = gear2only
    lteratio = 10
    relref = alllocal
    cmin = 0 F
    gmin = 1 pS
    rabsshort = 1 mOhm


Notice from spectre during transient analysis `tran', during Monte Carlo analysis `mc1'.
    Multithreading is disabled due to the size of the design being too small.


Output and IC/nodeset summary:
                 save   8       (current)
                 save   87      (voltage)

    tran: time = 1.259 s     (2.52 %), step = 100.3 ms     (201 m%)
    tran: time = 3.838 s     (7.68 %), step = 289.7 ms     (579 m%)
    tran: time = 6.665 s     (13.3 %), step = 500 ms          (1 %)
    tran: time = 9.165 s     (18.3 %), step = 500 ms          (1 %)
    tran: time = 11.66 s     (23.3 %), step = 500 ms          (1 %)
    tran: time = 14.16 s     (28.3 %), step = 500 ms          (1 %)
    tran: time = 16.66 s     (33.3 %), step = 500 ms          (1 %)
    tran: time = 19.16 s     (38.3 %), step = 500 ms          (1 %)
    tran: time = 21.66 s     (43.3 %), step = 500 ms          (1 %)
    tran: time = 24.16 s     (48.3 %), step = 500 ms          (1 %)
    tran: time = 26.66 s     (53.3 %), step = 500 ms          (1 %)
    tran: time = 29.16 s     (58.3 %), step = 500 ms          (1 %)
    tran: time = 31.66 s     (63.3 %), step = 500 ms          (1 %)
    tran: time = 33.97 s     (67.9 %), step = 262.2 ms     (524 m%)
    tran: time = 36.32 s     (72.6 %), step = 72.55 ms     (145 m%)
    tran: time = 39.17 s     (78.3 %), step = 443.1 ms     (886 m%)
    tran: time = 41.56 s     (83.1 %), step = 500 ms          (1 %)
    tran: time = 44.06 s     (88.1 %), step = 500 ms          (1 %)
    tran: time = 46.56 s     (93.1 %), step = 500 ms          (1 %)
    tran: time = 49.06 s     (98.1 %), step = 500 ms          (1 %)
Number of accepted tran steps =             662

Maximum value achieved for any signal of each quantity: 
V: V(vout_filt) = 3.3 V
I: I(V8:p) = 6.596 uA

~~~~~~~~~~~~~~~~~~~~~~~~~~~~~~~~~
Post-Transient Simulation Summary
~~~~~~~~~~~~~~~~~~~~~~~~~~~~~~~~~
   -   To further speed up simulation, consider
          add ++aps on command line
   -   Non-default settings that could significantly slow down simulation
          errpreset = conservative, default moderate
          reltol = 10e-06, default 100e-06 (conservative)
~~~~~~~~~~~~~~~~~~~~~~~~~~~~~~~~~


During simulation, the CPU load for active processors is :
         0 (3.8 %)       1 (13.8 %)      2 (58.8 %)      3 (3.1 %)
         4 (100.0 %)     5 (4.0 %)       6 (16.0 %)      7 (6.8 %)
         8 (10.3 %)      9 (10.2 %)     10 (9.0 %)      11 (13.2 %)
        12 (5.9 %)      13 (16.7 %)     14 (3.2 %)      15 (63.4 %)
        16 (42.4 %)     17 (7.9 %)      18 (10.4 %)     19 (6.9 %)
        20 (100.0 %)    21 (15.1 %)     22 (29.3 %)     23 (6.6 %)
        24 (100.0 %)    25 (3.4 %)      26 (2.9 %)      27 (2.3 %)
        28 (29.4 %)     29 (4.5 %)      30 (15.9 %)     31 (68.3 %)
        32 (7.7 %)      33 (54.2 %)     34 (6.3 %)      35 (5.1 %)
        36 (75.2 %)     37 (6.3 %)      38 (29.0 %)     39 (32.5 %)
        40 (7.3 %)      41 (3.7 %)      42 (2.3 %)      43 (15.6 %)
        44 (3.7 %)      45 (22.5 %)     46 (3.1 %)      47 (2.8 %)
        Total: 1060.4%
Initial condition solution time: CPU = 2.453 ms, elapsed = 2.455 ms.
Intrinsic tran analysis time:    CPU = 408.815 ms, elapsed = 410.239 ms.
Total time required for tran analysis `tran': CPU = 413.827 ms, elapsed = 415.856 ms, util. = 99.5%.
Time accumulated: CPU = 2.83973 s, elapsed = 3.66547 s.
Peak resident memory used = 214 Mbytes.


Notice from spectre during transient analysis `tran', during Monte Carlo analysis `mc1'.
    34 warnings suppressed.

finalTimeOP: writing operating point information to rawfile.

Opening the PSF file ../psf/mc1_separate/004/finalTimeOP.info ...
modelParameter: writing model parameter values to rawfile.

Opening the PSF file ../psf/mc1_separate/004/modelParameter.info ...
element: writing instance parameter values to rawfile.

Opening the PSF file ../psf/mc1_separate/004/element.info ...
outputParameter: writing output parameter values to rawfile.

Opening the PSF file ../psf/mc1_separate/004/outputParameter.info ...
designParamVals: writing netlist parameters to rawfile.

Opening the PSFASCII file ../psf/mc1_separate/004/designParamVals.info ...
primitives: writing primitives to rawfile.

Opening the PSFASCII file ../psf/mc1_separate/004/primitives.info.primitives ...
subckts: writing subcircuits to rawfile.

Opening the PSFASCII file ../psf/mc1_separate/004/subckts.info.subckts ...
    mc1: iteration = 4           (3.03 %), step = 1            (1.01 %)
5   4.04% 

*****************************************************************************************
* 
* INFO: AMS_processOption = C35B4C3
* 
* INFO: Valid Modules  PIP VG5 HIRES
* 
*****************************************************************************************


Notice from spectre during Monte Carlo analysis `mc1'.
    V8: `period' has the unusually large value of 100 s.


***********************************************
Transient Analysis `tran': time = (0 s -> 50 s)
***********************************************

Opening the PSF file ../psf/mc1_separate/005/tran.tran.tran ...

Warning from spectre during check, during IC analysis, during transient analysis `tran', during Monte Carlo analysis `mc1'.
    WARNING (CMI-2943): Parameter checks have been ignored because the valid value for parameter 'trise' could not be found in 'C1'.
    WARNING (CMI-2943): Parameter checks have been ignored because the valid value for parameter 'trise' could not be found in 'I0.R2.CM'.
    WARNING (CMI-2943): Parameter checks have been ignored because the valid value for parameter 'trise' could not be found in 'I0.R2.CS1'.
    WARNING (CMI-2943): Parameter checks have been ignored because the valid value for parameter 'trise' could not be found in 'I0.R2.CS0'.
    WARNING (CMI-2943): Parameter checks have been ignored because the valid value for parameter 'trise' could not be found in 'I0.C3.C1'.
        Further occurrences of this warning will be suppressed.

Convergence achieved in 12 iterations.
DC simulation time: CPU = 2.726 ms, elapsed = 2.7349 ms.
Important parameter values:
    start = 0 s
    outputstart = 0 s
    stop = 50 s
    step = 50 ms
    maxstep = 500 ms
    ic = all
    useprevic = no
    skipdc = no
    reltol = 10e-06
    abstol(V) = 1 uV
    abstol(I) = 1 pA
    temp = -40 C
    tnom = 27 C
    tempeffects = all
    errpreset = conservative
    method = gear2only
    lteratio = 10
    relref = alllocal
    cmin = 0 F
    gmin = 1 pS
    rabsshort = 1 mOhm


Notice from spectre during transient analysis `tran', during Monte Carlo analysis `mc1'.
    Multithreading is disabled due to the size of the design being too small.


Output and IC/nodeset summary:
                 save   8       (current)
                 save   87      (voltage)

    tran: time = 1.338 s     (2.68 %), step = 119.5 ms     (239 m%)
    tran: time = 4.039 s     (8.08 %), step = 314.6 ms     (629 m%)
    tran: time = 6.548 s     (13.1 %), step = 500 ms          (1 %)
    tran: time = 9.048 s     (18.1 %), step = 500 ms          (1 %)
    tran: time = 11.55 s     (23.1 %), step = 500 ms          (1 %)
    tran: time = 14.05 s     (28.1 %), step = 500 ms          (1 %)
    tran: time = 16.55 s     (33.1 %), step = 500 ms          (1 %)
    tran: time = 19.05 s     (38.1 %), step = 500 ms          (1 %)
    tran: time = 21.55 s     (43.1 %), step = 500 ms          (1 %)
    tran: time = 24.05 s     (48.1 %), step = 500 ms          (1 %)
    tran: time = 26.55 s     (53.1 %), step = 500 ms          (1 %)
    tran: time = 29.05 s     (58.1 %), step = 500 ms          (1 %)
    tran: time = 31.55 s     (63.1 %), step = 500 ms          (1 %)
    tran: time = 34.05 s     (68.1 %), step = 500 ms          (1 %)
    tran: time = 36.54 s     (73.1 %), step = 297.1 ms     (594 m%)
    tran: time = 38.76 s     (77.5 %), step = 32.89 ms    (65.8 m%)
    tran: time = 41.42 s     (82.8 %), step = 433.9 ms     (868 m%)
    tran: time = 44.23 s     (88.5 %), step = 500 ms          (1 %)
    tran: time = 46.73 s     (93.5 %), step = 500 ms          (1 %)
    tran: time = 49.23 s     (98.5 %), step = 500 ms          (1 %)
Number of accepted tran steps =             650

Maximum value achieved for any signal of each quantity: 
V: V(vout_filt) = 3.3 V
I: I(V8:p) = 6.478 uA

~~~~~~~~~~~~~~~~~~~~~~~~~~~~~~~~~
Post-Transient Simulation Summary
~~~~~~~~~~~~~~~~~~~~~~~~~~~~~~~~~
   -   To further speed up simulation, consider
          add ++aps on command line
   -   Non-default settings that could significantly slow down simulation
          errpreset = conservative, default moderate
          reltol = 10e-06, default 100e-06 (conservative)
~~~~~~~~~~~~~~~~~~~~~~~~~~~~~~~~~


During simulation, the CPU load for active processors is :
         0 (3.8 %)       1 (14.1 %)      2 (52.1 %)      3 (3.0 %)
         4 (92.1 %)      5 (5.3 %)       6 (14.3 %)      7 (6.0 %)
         8 (20.8 %)      9 (9.7 %)      10 (8.5 %)      11 (12.1 %)
        12 (5.9 %)      13 (15.2 %)     14 (2.8 %)      15 (67.7 %)
        16 (44.1 %)     17 (7.2 %)      18 (10.9 %)     19 (6.3 %)
        20 (100.0 %)    21 (24.9 %)     22 (31.6 %)     23 (7.5 %)
        24 (100.0 %)    25 (3.2 %)      26 (3.0 %)      27 (3.3 %)
        28 (36.9 %)     29 (4.5 %)      30 (14.3 %)     31 (71.5 %)
        32 (9.3 %)      33 (48.4 %)     34 (5.5 %)      35 (4.5 %)
        36 (67.5 %)     37 (6.3 %)      38 (36.1 %)     39 (39.9 %)
        40 (7.2 %)      41 (3.5 %)      42 (14.1 %)     43 (14.3 %)
        44 (3.5 %)      45 (22.5 %)     46 (3.0 %)      47 (2.8 %)
        Total: 1091.4%
Initial condition solution time: CPU = 2.769 ms, elapsed = 2.77996 ms.
Intrinsic tran analysis time:    CPU = 415.227 ms, elapsed = 417.05 ms.
Total time required for tran analysis `tran': CPU = 421.289 ms, elapsed = 423.811 ms, util. = 99.4%.
Time accumulated: CPU = 3.30406 s, elapsed = 4.14359 s.
Peak resident memory used = 214 Mbytes.


Notice from spectre during transient analysis `tran', during Monte Carlo analysis `mc1'.
    34 warnings suppressed.

finalTimeOP: writing operating point information to rawfile.

Opening the PSF file ../psf/mc1_separate/005/finalTimeOP.info ...
modelParameter: writing model parameter values to rawfile.

Opening the PSF file ../psf/mc1_separate/005/modelParameter.info ...
element: writing instance parameter values to rawfile.

Opening the PSF file ../psf/mc1_separate/005/element.info ...
outputParameter: writing output parameter values to rawfile.

Opening the PSF file ../psf/mc1_separate/005/outputParameter.info ...
designParamVals: writing netlist parameters to rawfile.

Opening the PSFASCII file ../psf/mc1_separate/005/designParamVals.info ...
primitives: writing primitives to rawfile.

Opening the PSFASCII file ../psf/mc1_separate/005/primitives.info.primitives ...
subckts: writing subcircuits to rawfile.

Opening the PSFASCII file ../psf/mc1_separate/005/subckts.info.subckts ...
    mc1: iteration = 5           (4.04 %), step = 1            (1.01 %)
6   5.05% 

*****************************************************************************************
* 
* INFO: AMS_processOption = C35B4C3
* 
* INFO: Valid Modules  PIP VG5 HIRES
* 
*****************************************************************************************


Notice from spectre during Monte Carlo analysis `mc1'.
    V8: `period' has the unusually large value of 100 s.


***********************************************
Transient Analysis `tran': time = (0 s -> 50 s)
***********************************************

Opening the PSF file ../psf/mc1_separate/006/tran.tran.tran ...

Warning from spectre during check, during IC analysis, during transient analysis `tran', during Monte Carlo analysis `mc1'.
    WARNING (CMI-2943): Parameter checks have been ignored because the valid value for parameter 'trise' could not be found in 'C1'.
    WARNING (CMI-2943): Parameter checks have been ignored because the valid value for parameter 'trise' could not be found in 'I0.R2.CM'.
    WARNING (CMI-2943): Parameter checks have been ignored because the valid value for parameter 'trise' could not be found in 'I0.R2.CS1'.
    WARNING (CMI-2943): Parameter checks have been ignored because the valid value for parameter 'trise' could not be found in 'I0.R2.CS0'.
    WARNING (CMI-2943): Parameter checks have been ignored because the valid value for parameter 'trise' could not be found in 'I0.C3.C1'.
        Further occurrences of this warning will be suppressed.

Convergence achieved in 12 iterations.
DC simulation time: CPU = 2.699 ms, elapsed = 2.70796 ms.
Important parameter values:
    start = 0 s
    outputstart = 0 s
    stop = 50 s
    step = 50 ms
    maxstep = 500 ms
    ic = all
    useprevic = no
    skipdc = no
    reltol = 10e-06
    abstol(V) = 1 uV
    abstol(I) = 1 pA
    temp = -40 C
    tnom = 27 C
    tempeffects = all
    errpreset = conservative
    method = gear2only
    lteratio = 10
    relref = alllocal
    cmin = 0 F
    gmin = 1 pS
    rabsshort = 1 mOhm


Notice from spectre during transient analysis `tran', during Monte Carlo analysis `mc1'.
    Multithreading is disabled due to the size of the design being too small.


Output and IC/nodeset summary:
                 save   8       (current)
                 save   87      (voltage)

    tran: time = 1.333 s     (2.67 %), step = 111.7 ms     (223 m%)
    tran: time = 3.868 s     (7.74 %), step = 296 ms       (592 m%)
    tran: time = 6.739 s     (13.5 %), step = 500 ms          (1 %)
    tran: time = 9.239 s     (18.5 %), step = 500 ms          (1 %)
    tran: time = 11.74 s     (23.5 %), step = 500 ms          (1 %)
    tran: time = 14.24 s     (28.5 %), step = 500 ms          (1 %)
    tran: time = 16.74 s     (33.5 %), step = 500 ms          (1 %)
    tran: time = 19.24 s     (38.5 %), step = 500 ms          (1 %)
    tran: time = 21.74 s     (43.5 %), step = 500 ms          (1 %)
    tran: time = 24.24 s     (48.5 %), step = 500 ms          (1 %)
    tran: time = 26.74 s     (53.5 %), step = 500 ms          (1 %)
    tran: time = 29.24 s     (58.5 %), step = 500 ms          (1 %)
    tran: time = 31.74 s     (63.5 %), step = 500 ms          (1 %)
    tran: time = 34.2 s      (68.4 %), step = 458.8 ms     (918 m%)
    tran: time = 36.29 s     (72.6 %), step = 105.6 ms     (211 m%)
    tran: time = 38.91 s     (77.8 %), step = 277.5 ms     (555 m%)
    tran: time = 41.47 s     (82.9 %), step = 459.9 ms     (920 m%)
    tran: time = 43.93 s     (87.9 %), step = 500 ms          (1 %)
    tran: time = 46.43 s     (92.9 %), step = 500 ms          (1 %)
    tran: time = 48.93 s     (97.9 %), step = 500 ms          (1 %)
Number of accepted tran steps =             659

Maximum value achieved for any signal of each quantity: 
V: V(vout_filt) = 3.3 V
I: I(V8:p) = 6.522 uA

~~~~~~~~~~~~~~~~~~~~~~~~~~~~~~~~~
Post-Transient Simulation Summary
~~~~~~~~~~~~~~~~~~~~~~~~~~~~~~~~~
   -   To further speed up simulation, consider
          add ++aps on command line
   -   Non-default settings that could significantly slow down simulation
          errpreset = conservative, default moderate
          reltol = 10e-06, default 100e-06 (conservative)
~~~~~~~~~~~~~~~~~~~~~~~~~~~~~~~~~


During simulation, the CPU load for active processors is :
         0 (4.1 %)       1 (13.1 %)      2 (48.2 %)      3 (3.1 %)
         4 (87.4 %)      5 (9.7 %)       6 (13.3 %)      7 (5.8 %)
         8 (24.8 %)      9 (10.7 %)     10 (7.8 %)      11 (17.5 %)
        12 (12.8 %)     13 (14.1 %)     14 (2.9 %)      15 (71.1 %)
        16 (40.4 %)     17 (8.5 %)      18 (10.6 %)     19 (6.3 %)
        20 (100.0 %)    21 (22.7 %)     22 (38.0 %)     23 (6.8 %)
        24 (100.0 %)    25 (3.1 %)      26 (3.1 %)      27 (3.6 %)
        28 (43.7 %)     29 (4.3 %)      30 (13.6 %)     31 (74.4 %)
        32 (10.8 %)     33 (44.0 %)     34 (5.6 %)      35 (4.0 %)
        36 (70.9 %)     37 (5.9 %)      38 (32.7 %)     39 (46.3 %)
        40 (6.7 %)      41 (3.3 %)      42 (22.9 %)     43 (13.2 %)
        44 (3.4 %)      45 (21.1 %)     46 (2.9 %)      47 (4.3 %)
        Total: 1123.8%
Initial condition solution time: CPU = 2.743 ms, elapsed = 2.75397 ms.
Intrinsic tran analysis time:    CPU = 413.452 ms, elapsed = 415.286 ms.
Total time required for tran analysis `tran': CPU = 419.035 ms, elapsed = 421.551 ms, util. = 99.4%.
Time accumulated: CPU = 3.76767 s, elapsed = 4.62139 s.
Peak resident memory used = 214 Mbytes.


Notice from spectre during transient analysis `tran', during Monte Carlo analysis `mc1'.
    34 warnings suppressed.

finalTimeOP: writing operating point information to rawfile.

Opening the PSF file ../psf/mc1_separate/006/finalTimeOP.info ...
modelParameter: writing model parameter values to rawfile.

Opening the PSF file ../psf/mc1_separate/006/modelParameter.info ...
element: writing instance parameter values to rawfile.

Opening the PSF file ../psf/mc1_separate/006/element.info ...
outputParameter: writing output parameter values to rawfile.

Opening the PSF file ../psf/mc1_separate/006/outputParameter.info ...
designParamVals: writing netlist parameters to rawfile.

Opening the PSFASCII file ../psf/mc1_separate/006/designParamVals.info ...
primitives: writing primitives to rawfile.

Opening the PSFASCII file ../psf/mc1_separate/006/primitives.info.primitives ...
subckts: writing subcircuits to rawfile.

Opening the PSFASCII file ../psf/mc1_separate/006/subckts.info.subckts ...
    mc1: iteration = 6           (5.05 %), step = 1            (1.01 %)
7   6.06% 

*****************************************************************************************
* 
* INFO: AMS_processOption = C35B4C3
* 
* INFO: Valid Modules  PIP VG5 HIRES
* 
*****************************************************************************************


Notice from spectre during Monte Carlo analysis `mc1'.
    V8: `period' has the unusually large value of 100 s.


***********************************************
Transient Analysis `tran': time = (0 s -> 50 s)
***********************************************

Opening the PSF file ../psf/mc1_separate/007/tran.tran.tran ...

Warning from spectre during check, during IC analysis, during transient analysis `tran', during Monte Carlo analysis `mc1'.
    WARNING (CMI-2943): Parameter checks have been ignored because the valid value for parameter 'trise' could not be found in 'C1'.
    WARNING (CMI-2943): Parameter checks have been ignored because the valid value for parameter 'trise' could not be found in 'I0.R2.CM'.
    WARNING (CMI-2943): Parameter checks have been ignored because the valid value for parameter 'trise' could not be found in 'I0.R2.CS1'.
    WARNING (CMI-2943): Parameter checks have been ignored because the valid value for parameter 'trise' could not be found in 'I0.R2.CS0'.
    WARNING (CMI-2943): Parameter checks have been ignored because the valid value for parameter 'trise' could not be found in 'I0.C3.C1'.
        Further occurrences of this warning will be suppressed.

Convergence achieved in 12 iterations.
DC simulation time: CPU = 2.501 ms, elapsed = 2.5022 ms.
Important parameter values:
    start = 0 s
    outputstart = 0 s
    stop = 50 s
    step = 50 ms
    maxstep = 500 ms
    ic = all
    useprevic = no
    skipdc = no
    reltol = 10e-06
    abstol(V) = 1 uV
    abstol(I) = 1 pA
    temp = -40 C
    tnom = 27 C
    tempeffects = all
    errpreset = conservative
    method = gear2only
    lteratio = 10
    relref = alllocal
    cmin = 0 F
    gmin = 1 pS
    rabsshort = 1 mOhm


Notice from spectre during transient analysis `tran', during Monte Carlo analysis `mc1'.
    Multithreading is disabled due to the size of the design being too small.


Output and IC/nodeset summary:
                 save   8       (current)
                 save   87      (voltage)

    tran: time = 1.34 s      (2.68 %), step = 116.9 ms     (234 m%)
    tran: time = 3.986 s     (7.97 %), step = 308.4 ms     (617 m%)
    tran: time = 6.456 s     (12.9 %), step = 500 ms          (1 %)
    tran: time = 8.956 s     (17.9 %), step = 500 ms          (1 %)
    tran: time = 11.46 s     (22.9 %), step = 500 ms          (1 %)
    tran: time = 13.96 s     (27.9 %), step = 500 ms          (1 %)
    tran: time = 16.46 s     (32.9 %), step = 500 ms          (1 %)
    tran: time = 18.96 s     (37.9 %), step = 500 ms          (1 %)
    tran: time = 21.46 s     (42.9 %), step = 500 ms          (1 %)
    tran: time = 23.96 s     (47.9 %), step = 500 ms          (1 %)
    tran: time = 26.46 s     (52.9 %), step = 500 ms          (1 %)
    tran: time = 28.96 s     (57.9 %), step = 500 ms          (1 %)
    tran: time = 31.46 s     (62.9 %), step = 500 ms          (1 %)
    tran: time = 33.96 s     (67.9 %), step = 500 ms          (1 %)
    tran: time = 36.33 s     (72.7 %), step = 274.3 ms     (549 m%)
    tran: time = 38.81 s     (77.6 %), step = 79.94 ms     (160 m%)
    tran: time = 41.47 s     (82.9 %), step = 440.2 ms     (880 m%)
    tran: time = 43.84 s     (87.7 %), step = 500 ms          (1 %)
    tran: time = 46.34 s     (92.7 %), step = 500 ms          (1 %)
    tran: time = 48.84 s     (97.7 %), step = 500 ms          (1 %)
Number of accepted tran steps =             654

Maximum value achieved for any signal of each quantity: 
V: V(vout_filt) = 3.3 V
I: I(V8:p) = 6.435 uA

~~~~~~~~~~~~~~~~~~~~~~~~~~~~~~~~~
Post-Transient Simulation Summary
~~~~~~~~~~~~~~~~~~~~~~~~~~~~~~~~~
   -   To further speed up simulation, consider
          add ++aps on command line
   -   Non-default settings that could significantly slow down simulation
          errpreset = conservative, default moderate
          reltol = 10e-06, default 100e-06 (conservative)
~~~~~~~~~~~~~~~~~~~~~~~~~~~~~~~~~


During simulation, the CPU load for active processors is :
         0 (4.1 %)       1 (12.1 %)      2 (46.3 %)      3 (3.1 %)
         4 (88.4 %)      5 (10.2 %)      6 (12.0 %)      7 (5.5 %)
         8 (23.1 %)      9 (11.7 %)     10 (7.7 %)      11 (23.1 %)
        12 (21.0 %)     13 (13.6 %)     14 (2.9 %)      15 (73.8 %)
        16 (37.2 %)     17 (8.1 %)      18 (9.9 %)      19 (5.9 %)
        20 (100.0 %)    21 (20.8 %)     22 (43.7 %)     23 (6.5 %)
        24 (100.0 %)    25 (4.4 %)      26 (3.3 %)      27 (4.3 %)
        28 (48.1 %)     29 (4.1 %)      30 (14.6 %)     31 (76.5 %)
        32 (11.4 %)     33 (40.4 %)     34 (5.1 %)      35 (4.0 %)
        36 (69.8 %)     37 (5.9 %)      38 (30.6 %)     39 (43.6 %)
        40 (6.7 %)      41 (3.4 %)      42 (22.1 %)     43 (12.4 %)
        44 (7.1 %)      45 (27.4 %)     46 (10.4 %)     47 (9.1 %)
        Total: 1155.6%
Initial condition solution time: CPU = 2.543 ms, elapsed = 2.54416 ms.
Intrinsic tran analysis time:    CPU = 406.285 ms, elapsed = 407.871 ms.
Total time required for tran analysis `tran': CPU = 411.418 ms, elapsed = 413.535 ms, util. = 99.5%.
Time accumulated: CPU = 4.22001 s, elapsed = 5.08771 s.
Peak resident memory used = 214 Mbytes.


Notice from spectre during transient analysis `tran', during Monte Carlo analysis `mc1'.
    34 warnings suppressed.

finalTimeOP: writing operating point information to rawfile.

Opening the PSF file ../psf/mc1_separate/007/finalTimeOP.info ...
modelParameter: writing model parameter values to rawfile.

Opening the PSF file ../psf/mc1_separate/007/modelParameter.info ...
element: writing instance parameter values to rawfile.

Opening the PSF file ../psf/mc1_separate/007/element.info ...
outputParameter: writing output parameter values to rawfile.

Opening the PSF file ../psf/mc1_separate/007/outputParameter.info ...
designParamVals: writing netlist parameters to rawfile.

Opening the PSFASCII file ../psf/mc1_separate/007/designParamVals.info ...
primitives: writing primitives to rawfile.

Opening the PSFASCII file ../psf/mc1_separate/007/primitives.info.primitives ...
subckts: writing subcircuits to rawfile.

Opening the PSFASCII file ../psf/mc1_separate/007/subckts.info.subckts ...
    mc1: iteration = 7           (6.06 %), step = 1            (1.01 %)
8   7.07% 

*****************************************************************************************
* 
* INFO: AMS_processOption = C35B4C3
* 
* INFO: Valid Modules  PIP VG5 HIRES
* 
*****************************************************************************************


Notice from spectre during Monte Carlo analysis `mc1'.
    V8: `period' has the unusually large value of 100 s.


***********************************************
Transient Analysis `tran': time = (0 s -> 50 s)
***********************************************

Opening the PSF file ../psf/mc1_separate/008/tran.tran.tran ...

Warning from spectre during check, during IC analysis, during transient analysis `tran', during Monte Carlo analysis `mc1'.
    WARNING (CMI-2943): Parameter checks have been ignored because the valid value for parameter 'trise' could not be found in 'C1'.
    WARNING (CMI-2943): Parameter checks have been ignored because the valid value for parameter 'trise' could not be found in 'I0.R2.CM'.
    WARNING (CMI-2943): Parameter checks have been ignored because the valid value for parameter 'trise' could not be found in 'I0.R2.CS1'.
    WARNING (CMI-2943): Parameter checks have been ignored because the valid value for parameter 'trise' could not be found in 'I0.R2.CS0'.
    WARNING (CMI-2943): Parameter checks have been ignored because the valid value for parameter 'trise' could not be found in 'I0.C3.C1'.
        Further occurrences of this warning will be suppressed.

Convergence achieved in 12 iterations.
DC simulation time: CPU = 2.407 ms, elapsed = 2.40803 ms.
Important parameter values:
    start = 0 s
    outputstart = 0 s
    stop = 50 s
    step = 50 ms
    maxstep = 500 ms
    ic = all
    useprevic = no
    skipdc = no
    reltol = 10e-06
    abstol(V) = 1 uV
    abstol(I) = 1 pA
    temp = -40 C
    tnom = 27 C
    tempeffects = all
    errpreset = conservative
    method = gear2only
    lteratio = 10
    relref = alllocal
    cmin = 0 F
    gmin = 1 pS
    rabsshort = 1 mOhm


Notice from spectre during transient analysis `tran', during Monte Carlo analysis `mc1'.
    Multithreading is disabled due to the size of the design being too small.


Output and IC/nodeset summary:
                 save   8       (current)
                 save   87      (voltage)

    tran: time = 1.368 s     (2.74 %), step = 122.2 ms     (244 m%)
    tran: time = 3.809 s     (7.62 %), step = 297.9 ms     (596 m%)
    tran: time = 6.689 s     (13.4 %), step = 500 ms          (1 %)
    tran: time = 9.189 s     (18.4 %), step = 500 ms          (1 %)
    tran: time = 11.69 s     (23.4 %), step = 500 ms          (1 %)
    tran: time = 14.19 s     (28.4 %), step = 500 ms          (1 %)
    tran: time = 16.69 s     (33.4 %), step = 500 ms          (1 %)
    tran: time = 19.19 s     (38.4 %), step = 500 ms          (1 %)
    tran: time = 21.69 s     (43.4 %), step = 500 ms          (1 %)
    tran: time = 24.19 s     (48.4 %), step = 500 ms          (1 %)
    tran: time = 26.69 s     (53.4 %), step = 500 ms          (1 %)
    tran: time = 29.19 s     (58.4 %), step = 500 ms          (1 %)
    tran: time = 31.69 s     (63.4 %), step = 500 ms          (1 %)
    tran: time = 34.19 s     (68.4 %), step = 500 ms          (1 %)
    tran: time = 36.35 s     (72.7 %), step = 335.4 ms     (671 m%)
    tran: time = 38.77 s     (77.5 %), step = 49.86 ms    (99.7 m%)
    tran: time = 41.43 s     (82.9 %), step = 433.4 ms     (867 m%)
    tran: time = 44.24 s     (88.5 %), step = 500 ms          (1 %)
    tran: time = 46.74 s     (93.5 %), step = 500 ms          (1 %)
    tran: time = 49.24 s     (98.5 %), step = 500 ms          (1 %)
Number of accepted tran steps =             651

Maximum value achieved for any signal of each quantity: 
V: V(vout_filt) = 3.3 V
I: I(V8:p) = 6.469 uA

~~~~~~~~~~~~~~~~~~~~~~~~~~~~~~~~~
Post-Transient Simulation Summary
~~~~~~~~~~~~~~~~~~~~~~~~~~~~~~~~~
   -   To further speed up simulation, consider
          add ++aps on command line
   -   Non-default settings that could significantly slow down simulation
          errpreset = conservative, default moderate
          reltol = 10e-06, default 100e-06 (conservative)
~~~~~~~~~~~~~~~~~~~~~~~~~~~~~~~~~


During simulation, the CPU load for active processors is :
         0 (5.9 %)       1 (12.5 %)      2 (49.1 %)      3 (3.0 %)
         4 (89.0 %)      5 (10.4 %)      6 (11.4 %)      7 (6.1 %)
         8 (21.6 %)      9 (12.6 %)     10 (7.3 %)      11 (22.6 %)
        12 (25.4 %)     13 (14.5 %)     14 (2.8 %)      15 (76.1 %)
        16 (34.1 %)     17 (7.8 %)      18 (9.2 %)      19 (5.6 %)
        20 (100.0 %)    21 (22.0 %)     22 (48.2 %)     23 (6.0 %)
        24 (100.0 %)    25 (4.4 %)      26 (3.3 %)      27 (3.9 %)
        28 (52.3 %)     29 (3.9 %)      30 (13.5 %)     31 (78.3 %)
        32 (12.1 %)     33 (37.4 %)     34 (5.4 %)      35 (3.9 %)
        36 (64.1 %)     37 (5.4 %)      38 (28.2 %)     39 (40.1 %)
        40 (7.0 %)      41 (3.3 %)      42 (21.7 %)     43 (12.1 %)
        44 (6.5 %)      45 (32.9 %)     46 (18.0 %)     47 (16.9 %)
        Total: 1178.1%
Initial condition solution time: CPU = 2.446 ms, elapsed = 2.44904 ms.
Intrinsic tran analysis time:    CPU = 401.151 ms, elapsed = 403.228 ms.
Total time required for tran analysis `tran': CPU = 406.1 ms, elapsed = 408.903 ms, util. = 99.3%.
Time accumulated: CPU = 4.66667 s, elapsed = 5.55012 s.
Peak resident memory used = 214 Mbytes.


Notice from spectre during transient analysis `tran', during Monte Carlo analysis `mc1'.
    34 warnings suppressed.

finalTimeOP: writing operating point information to rawfile.

Opening the PSF file ../psf/mc1_separate/008/finalTimeOP.info ...
modelParameter: writing model parameter values to rawfile.

Opening the PSF file ../psf/mc1_separate/008/modelParameter.info ...
element: writing instance parameter values to rawfile.

Opening the PSF file ../psf/mc1_separate/008/element.info ...
outputParameter: writing output parameter values to rawfile.

Opening the PSF file ../psf/mc1_separate/008/outputParameter.info ...
designParamVals: writing netlist parameters to rawfile.

Opening the PSFASCII file ../psf/mc1_separate/008/designParamVals.info ...
primitives: writing primitives to rawfile.

Opening the PSFASCII file ../psf/mc1_separate/008/primitives.info.primitives ...
subckts: writing subcircuits to rawfile.

Opening the PSFASCII file ../psf/mc1_separate/008/subckts.info.subckts ...
    mc1: iteration = 8           (7.07 %), step = 1            (1.01 %)
9   8.08% 

*****************************************************************************************
* 
* INFO: AMS_processOption = C35B4C3
* 
* INFO: Valid Modules  PIP VG5 HIRES
* 
*****************************************************************************************


Notice from spectre during Monte Carlo analysis `mc1'.
    V8: `period' has the unusually large value of 100 s.


***********************************************
Transient Analysis `tran': time = (0 s -> 50 s)
***********************************************

Opening the PSF file ../psf/mc1_separate/009/tran.tran.tran ...

Warning from spectre during check, during IC analysis, during transient analysis `tran', during Monte Carlo analysis `mc1'.
    WARNING (CMI-2943): Parameter checks have been ignored because the valid value for parameter 'trise' could not be found in 'C1'.
    WARNING (CMI-2943): Parameter checks have been ignored because the valid value for parameter 'trise' could not be found in 'I0.R2.CM'.
    WARNING (CMI-2943): Parameter checks have been ignored because the valid value for parameter 'trise' could not be found in 'I0.R2.CS1'.
    WARNING (CMI-2943): Parameter checks have been ignored because the valid value for parameter 'trise' could not be found in 'I0.R2.CS0'.
    WARNING (CMI-2943): Parameter checks have been ignored because the valid value for parameter 'trise' could not be found in 'I0.C3.C1'.
        Further occurrences of this warning will be suppressed.

Convergence achieved in 12 iterations.
DC simulation time: CPU = 2.527 ms, elapsed = 2.54416 ms.
Important parameter values:
    start = 0 s
    outputstart = 0 s
    stop = 50 s
    step = 50 ms
    maxstep = 500 ms
    ic = all
    useprevic = no
    skipdc = no
    reltol = 10e-06
    abstol(V) = 1 uV
    abstol(I) = 1 pA
    temp = -40 C
    tnom = 27 C
    tempeffects = all
    errpreset = conservative
    method = gear2only
    lteratio = 10
    relref = alllocal
    cmin = 0 F
    gmin = 1 pS
    rabsshort = 1 mOhm


Notice from spectre during transient analysis `tran', during Monte Carlo analysis `mc1'.
    Multithreading is disabled due to the size of the design being too small.


Output and IC/nodeset summary:
                 save   8       (current)
                 save   87      (voltage)

    tran: time = 1.255 s     (2.51 %), step = 125.3 ms     (251 m%)
    tran: time = 4.068 s     (8.14 %), step = 326.6 ms     (653 m%)
    tran: time = 6.653 s     (13.3 %), step = 500 ms          (1 %)
    tran: time = 9.153 s     (18.3 %), step = 500 ms          (1 %)
    tran: time = 11.65 s     (23.3 %), step = 500 ms          (1 %)
    tran: time = 14.15 s     (28.3 %), step = 500 ms          (1 %)
    tran: time = 16.65 s     (33.3 %), step = 500 ms          (1 %)
    tran: time = 19.15 s     (38.3 %), step = 500 ms          (1 %)
    tran: time = 21.65 s     (43.3 %), step = 500 ms          (1 %)
    tran: time = 24.15 s     (48.3 %), step = 500 ms          (1 %)
    tran: time = 26.65 s     (53.3 %), step = 500 ms          (1 %)
    tran: time = 29.15 s     (58.3 %), step = 500 ms          (1 %)
    tran: time = 31.65 s     (63.3 %), step = 500 ms          (1 %)
    tran: time = 34.15 s     (68.3 %), step = 500 ms          (1 %)
    tran: time = 36.61 s     (73.2 %), step = 457.4 ms     (915 m%)
    tran: time = 38.79 s     (77.6 %), step = 88.72 ms     (177 m%)
    tran: time = 41.56 s     (83.1 %), step = 326.3 ms     (653 m%)
    tran: time = 44.21 s     (88.4 %), step = 468.5 ms     (937 m%)
    tran: time = 46.69 s     (93.4 %), step = 500 ms          (1 %)
    tran: time = 49.19 s     (98.4 %), step = 500 ms          (1 %)
Number of accepted tran steps =             647

Maximum value achieved for any signal of each quantity: 
V: V(vout_filt) = 3.3 V
I: I(V8:p) = 6.279 uA

~~~~~~~~~~~~~~~~~~~~~~~~~~~~~~~~~
Post-Transient Simulation Summary
~~~~~~~~~~~~~~~~~~~~~~~~~~~~~~~~~
   -   To further speed up simulation, consider
          add ++aps on command line
   -   Non-default settings that could significantly slow down simulation
          errpreset = conservative, default moderate
          reltol = 10e-06, default 100e-06 (conservative)
~~~~~~~~~~~~~~~~~~~~~~~~~~~~~~~~~


During simulation, the CPU load for active processors is :
         0 (6.1 %)       1 (11.8 %)      2 (47.0 %)      3 (3.4 %)
         4 (89.8 %)      5 (10.4 %)      6 (10.7 %)      7 (6.7 %)
         8 (20.2 %)      9 (12.4 %)     10 (6.9 %)      11 (21.4 %)
        12 (24.1 %)     13 (18.2 %)     14 (4.5 %)      15 (77.9 %)
        16 (32.2 %)     17 (8.4 %)      18 (8.9 %)      19 (5.7 %)
        20 (100.0 %)    21 (27.6 %)     22 (50.6 %)     23 (6.7 %)
        24 (100.0 %)    25 (4.3 %)      26 (3.1 %)      27 (4.1 %)
        28 (55.4 %)     29 (4.0 %)      30 (12.6 %)     31 (79.3 %)
        32 (11.7 %)     33 (36.2 %)     34 (5.0 %)      35 (3.6 %)
        36 (60.0 %)     37 (5.4 %)      38 (26.2 %)     39 (37.6 %)
        40 (7.4 %)      41 (3.4 %)      42 (24.5 %)     43 (11.7 %)
        44 (8.2 %)      45 (37.8 %)     46 (23.8 %)     47 (19.5 %)
        Total: 1196.5%
Initial condition solution time: CPU = 2.565 ms, elapsed = 2.58279 ms.
Intrinsic tran analysis time:    CPU = 398.536 ms, elapsed = 400.262 ms.
Total time required for tran analysis `tran': CPU = 403.5 ms, elapsed = 405.952 ms, util. = 99.4%.
Time accumulated: CPU = 5.11044 s, elapsed = 6.00791 s.
Peak resident memory used = 214 Mbytes.


Notice from spectre during transient analysis `tran', during Monte Carlo analysis `mc1'.
    34 warnings suppressed.

finalTimeOP: writing operating point information to rawfile.

Opening the PSF file ../psf/mc1_separate/009/finalTimeOP.info ...
modelParameter: writing model parameter values to rawfile.

Opening the PSF file ../psf/mc1_separate/009/modelParameter.info ...
element: writing instance parameter values to rawfile.

Opening the PSF file ../psf/mc1_separate/009/element.info ...
outputParameter: writing output parameter values to rawfile.

Opening the PSF file ../psf/mc1_separate/009/outputParameter.info ...
designParamVals: writing netlist parameters to rawfile.

Opening the PSFASCII file ../psf/mc1_separate/009/designParamVals.info ...
primitives: writing primitives to rawfile.

Opening the PSFASCII file ../psf/mc1_separate/009/primitives.info.primitives ...
subckts: writing subcircuits to rawfile.

Opening the PSFASCII file ../psf/mc1_separate/009/subckts.info.subckts ...
    mc1: iteration = 9           (8.08 %), step = 1            (1.01 %)
10   9.09% 

*****************************************************************************************
* 
* INFO: AMS_processOption = C35B4C3
* 
* INFO: Valid Modules  PIP VG5 HIRES
* 
*****************************************************************************************


Notice from spectre during Monte Carlo analysis `mc1'.
    V8: `period' has the unusually large value of 100 s.


***********************************************
Transient Analysis `tran': time = (0 s -> 50 s)
***********************************************

Opening the PSF file ../psf/mc1_separate/010/tran.tran.tran ...

Warning from spectre during check, during IC analysis, during transient analysis `tran', during Monte Carlo analysis `mc1'.
    WARNING (CMI-2943): Parameter checks have been ignored because the valid value for parameter 'trise' could not be found in 'C1'.
    WARNING (CMI-2943): Parameter checks have been ignored because the valid value for parameter 'trise' could not be found in 'I0.R2.CM'.
    WARNING (CMI-2943): Parameter checks have been ignored because the valid value for parameter 'trise' could not be found in 'I0.R2.CS1'.
    WARNING (CMI-2943): Parameter checks have been ignored because the valid value for parameter 'trise' could not be found in 'I0.R2.CS0'.
    WARNING (CMI-2943): Parameter checks have been ignored because the valid value for parameter 'trise' could not be found in 'I0.C3.C1'.
        Further occurrences of this warning will be suppressed.

Convergence achieved in 12 iterations.
DC simulation time: CPU = 2.564 ms, elapsed = 2.56491 ms.
Important parameter values:
    start = 0 s
    outputstart = 0 s
    stop = 50 s
    step = 50 ms
    maxstep = 500 ms
    ic = all
    useprevic = no
    skipdc = no
    reltol = 10e-06
    abstol(V) = 1 uV
    abstol(I) = 1 pA
    temp = -40 C
    tnom = 27 C
    tempeffects = all
    errpreset = conservative
    method = gear2only
    lteratio = 10
    relref = alllocal
    cmin = 0 F
    gmin = 1 pS
    rabsshort = 1 mOhm


Notice from spectre during transient analysis `tran', during Monte Carlo analysis `mc1'.
    Multithreading is disabled due to the size of the design being too small.


Output and IC/nodeset summary:
                 save   8       (current)
                 save   87      (voltage)

    tran: time = 1.264 s     (2.53 %), step = 104.1 ms     (208 m%)
    tran: time = 3.927 s     (7.85 %), step = 298.5 ms     (597 m%)
    tran: time = 6.322 s     (12.6 %), step = 485.2 ms     (970 m%)
    tran: time = 8.822 s     (17.6 %), step = 500 ms          (1 %)
    tran: time = 11.32 s     (22.6 %), step = 500 ms          (1 %)
    tran: time = 13.82 s     (27.6 %), step = 500 ms          (1 %)
    tran: time = 16.32 s     (32.6 %), step = 500 ms          (1 %)
    tran: time = 18.82 s     (37.6 %), step = 500 ms          (1 %)
    tran: time = 21.32 s     (42.6 %), step = 500 ms          (1 %)
    tran: time = 23.82 s     (47.6 %), step = 500 ms          (1 %)
    tran: time = 26.32 s     (52.6 %), step = 500 ms          (1 %)
    tran: time = 28.82 s     (57.6 %), step = 500 ms          (1 %)
[...]


***********************************************
Transient Analysis `tran': time = (0 s -> 50 s)
***********************************************

Opening the PSF file ../psf/mc1_separate/098/tran.tran.tran ...

Warning from spectre during check, during IC analysis, during transient analysis `tran', during Monte Carlo analysis `mc1'.
    WARNING (CMI-2943): Parameter checks have been ignored because the valid value for parameter 'trise' could not be found in 'C1'.
    WARNING (CMI-2943): Parameter checks have been ignored because the valid value for parameter 'trise' could not be found in 'I0.R2.CM'.
    WARNING (CMI-2943): Parameter checks have been ignored because the valid value for parameter 'trise' could not be found in 'I0.R2.CS1'.
    WARNING (CMI-2943): Parameter checks have been ignored because the valid value for parameter 'trise' could not be found in 'I0.R2.CS0'.
    WARNING (CMI-2943): Parameter checks have been ignored because the valid value for parameter 'trise' could not be found in 'I0.C3.C1'.
        Further occurrences of this warning will be suppressed.

Convergence achieved in 12 iterations.
DC simulation time: CPU = 2.649 ms, elapsed = 2.64907 ms.
Important parameter values:
    start = 0 s
    outputstart = 0 s
    stop = 50 s
    step = 50 ms
    maxstep = 500 ms
    ic = all
    useprevic = no
    skipdc = no
    reltol = 10e-06
    abstol(V) = 1 uV
    abstol(I) = 1 pA
    temp = -40 C
    tnom = 27 C
    tempeffects = all
    errpreset = conservative
    method = gear2only
    lteratio = 10
    relref = alllocal
    cmin = 0 F
    gmin = 1 pS
    rabsshort = 1 mOhm


Notice from spectre during transient analysis `tran', during Monte Carlo analysis `mc1'.
    Multithreading is disabled due to the size of the design being too small.


Output and IC/nodeset summary:
                 save   8       (current)
                 save   87      (voltage)

    tran: time = 1.315 s     (2.63 %), step = 114.4 ms     (229 m%)
    tran: time = 3.903 s     (7.81 %), step = 301.5 ms     (603 m%)
    tran: time = 6.317 s     (12.6 %), step = 488.5 ms     (977 m%)
    tran: time = 8.817 s     (17.6 %), step = 500 ms          (1 %)
    tran: time = 11.32 s     (22.6 %), step = 500 ms          (1 %)
    tran: time = 13.82 s     (27.6 %), step = 500 ms          (1 %)
    tran: time = 16.32 s     (32.6 %), step = 500 ms          (1 %)
    tran: time = 18.82 s     (37.6 %), step = 500 ms          (1 %)
    tran: time = 21.32 s     (42.6 %), step = 500 ms          (1 %)
    tran: time = 23.82 s     (47.6 %), step = 500 ms          (1 %)
    tran: time = 26.32 s     (52.6 %), step = 500 ms          (1 %)
    tran: time = 28.82 s     (57.6 %), step = 500 ms          (1 %)
    tran: time = 31.32 s     (62.6 %), step = 500 ms          (1 %)
    tran: time = 33.82 s     (67.6 %), step = 500 ms          (1 %)
    tran: time = 36.41 s     (72.8 %), step = 231.4 ms     (463 m%)
    tran: time = 38.79 s     (77.6 %), step = 105.4 ms     (211 m%)
    tran: time = 41.49 s       (83 %), step = 444 ms       (888 m%)
    tran: time = 43.88 s     (87.8 %), step = 500 ms          (1 %)
    tran: time = 46.38 s     (92.8 %), step = 500 ms          (1 %)
    tran: time = 48.88 s     (97.8 %), step = 500 ms          (1 %)
Number of accepted tran steps =             654

Maximum value achieved for any signal of each quantity: 
V: V(vout_filt) = 3.3 V
I: I(V8:p) = 6.313 uA

~~~~~~~~~~~~~~~~~~~~~~~~~~~~~~~~~
Post-Transient Simulation Summary
~~~~~~~~~~~~~~~~~~~~~~~~~~~~~~~~~
   -   To further speed up simulation, consider
          add ++aps on command line
   -   Non-default settings that could significantly slow down simulation
          errpreset = conservative, default moderate
          reltol = 10e-06, default 100e-06 (conservative)
~~~~~~~~~~~~~~~~~~~~~~~~~~~~~~~~~


During simulation, the CPU load for active processors is :
         0 (49.0 %)      1 (14.3 %)      2 (24.1 %)      3 (12.8 %)
         4 (56.6 %)      5 (15.0 %)      6 (7.8 %)       7 (10.0 %)
         8 (19.4 %)      9 (5.5 %)      10 (10.2 %)     11 (15.0 %)
        12 (27.6 %)     13 (7.4 %)      14 (49.1 %)     15 (39.9 %)
        16 (19.3 %)     17 (28.9 %)     18 (27.3 %)     19 (48.6 %)
        20 (47.0 %)     21 (51.0 %)     22 (39.8 %)     23 (19.2 %)
        24 (92.7 %)     25 (24.9 %)     26 (26.7 %)     27 (6.2 %)
        28 (42.6 %)     29 (18.1 %)     30 (16.4 %)     31 (33.2 %)
        32 (26.4 %)     33 (22.0 %)     34 (14.0 %)     35 (10.9 %)
        36 (33.0 %)     37 (30.6 %)     38 (9.9 %)      39 (26.3 %)
        40 (10.6 %)     41 (7.3 %)      42 (28.4 %)     43 (25.9 %)
        44 (28.7 %)     45 (46.2 %)     46 (37.8 %)     47 (25.7 %)
        Total: 1289.4%
Initial condition solution time: CPU = 2.69 ms, elapsed = 2.69198 ms.
Intrinsic tran analysis time:    CPU = 401.841 ms, elapsed = 404.088 ms.
Total time required for tran analysis `tran': CPU = 407.312 ms, elapsed = 410.377 ms, util. = 99.3%.
Time accumulated: CPU = 45.0915 s, elapsed = 47.232 s.
Peak resident memory used = 215 Mbytes.


Notice from spectre during transient analysis `tran', during Monte Carlo analysis `mc1'.
    34 warnings suppressed.

finalTimeOP: writing operating point information to rawfile.

Opening the PSF file ../psf/mc1_separate/098/finalTimeOP.info ...
modelParameter: writing model parameter values to rawfile.

Opening the PSF file ../psf/mc1_separate/098/modelParameter.info ...
element: writing instance parameter values to rawfile.

Opening the PSF file ../psf/mc1_separate/098/element.info ...
outputParameter: writing output parameter values to rawfile.

Opening the PSF file ../psf/mc1_separate/098/outputParameter.info ...
designParamVals: writing netlist parameters to rawfile.

Opening the PSFASCII file ../psf/mc1_separate/098/designParamVals.info ...
primitives: writing primitives to rawfile.

Opening the PSFASCII file ../psf/mc1_separate/098/primitives.info.primitives ...
subckts: writing subcircuits to rawfile.

Opening the PSFASCII file ../psf/mc1_separate/098/subckts.info.subckts ...
    mc1: iteration = 98            (98 %), step = 1            (1.01 %)
99  98.99% 

*****************************************************************************************
* 
* INFO: AMS_processOption = C35B4C3
* 
* INFO: Valid Modules  PIP VG5 HIRES
* 
*****************************************************************************************


Notice from spectre during Monte Carlo analysis `mc1'.
    V8: `period' has the unusually large value of 100 s.


***********************************************
Transient Analysis `tran': time = (0 s -> 50 s)
***********************************************

Opening the PSF file ../psf/mc1_separate/099/tran.tran.tran ...

Warning from spectre during check, during IC analysis, during transient analysis `tran', during Monte Carlo analysis `mc1'.
    WARNING (CMI-2943): Parameter checks have been ignored because the valid value for parameter 'trise' could not be found in 'C1'.
    WARNING (CMI-2943): Parameter checks have been ignored because the valid value for parameter 'trise' could not be found in 'I0.R2.CM'.
    WARNING (CMI-2943): Parameter checks have been ignored because the valid value for parameter 'trise' could not be found in 'I0.R2.CS1'.
    WARNING (CMI-2943): Parameter checks have been ignored because the valid value for parameter 'trise' could not be found in 'I0.R2.CS0'.
    WARNING (CMI-2943): Parameter checks have been ignored because the valid value for parameter 'trise' could not be found in 'I0.C3.C1'.
        Further occurrences of this warning will be suppressed.

Convergence achieved in 12 iterations.
DC simulation time: CPU = 2.52 ms, elapsed = 2.52104 ms.
Important parameter values:
    start = 0 s
    outputstart = 0 s
    stop = 50 s
    step = 50 ms
    maxstep = 500 ms
    ic = all
    useprevic = no
    skipdc = no
    reltol = 10e-06
    abstol(V) = 1 uV
    abstol(I) = 1 pA
    temp = -40 C
    tnom = 27 C
    tempeffects = all
    errpreset = conservative
    method = gear2only
    lteratio = 10
    relref = alllocal
    cmin = 0 F
    gmin = 1 pS
    rabsshort = 1 mOhm


Notice from spectre during transient analysis `tran', during Monte Carlo analysis `mc1'.
    Multithreading is disabled due to the size of the design being too small.


Output and IC/nodeset summary:
                 save   8       (current)
                 save   87      (voltage)

    tran: time = 1.267 s     (2.53 %), step = 107.6 ms     (215 m%)
    tran: time = 4.011 s     (8.02 %), step = 307.1 ms     (614 m%)
    tran: time = 6.474 s     (12.9 %), step = 499.1 ms     (998 m%)
    tran: time = 8.974 s     (17.9 %), step = 500 ms          (1 %)
    tran: time = 11.47 s     (22.9 %), step = 500 ms          (1 %)
    tran: time = 13.97 s     (27.9 %), step = 500 ms          (1 %)
    tran: time = 16.47 s     (32.9 %), step = 500 ms          (1 %)
    tran: time = 18.97 s     (37.9 %), step = 500 ms          (1 %)
    tran: time = 21.47 s     (42.9 %), step = 500 ms          (1 %)
    tran: time = 23.97 s     (47.9 %), step = 500 ms          (1 %)
    tran: time = 26.47 s     (52.9 %), step = 500 ms          (1 %)
    tran: time = 28.97 s     (57.9 %), step = 500 ms          (1 %)
    tran: time = 31.47 s     (62.9 %), step = 500 ms          (1 %)
    tran: time = 33.97 s     (67.9 %), step = 498.5 ms     (997 m%)
    tran: time = 36.33 s     (72.7 %), step = 121.8 ms     (244 m%)
    tran: time = 39.03 s     (78.1 %), step = 276 ms       (552 m%)
    tran: time = 41.58 s     (83.2 %), step = 459.4 ms     (919 m%)
    tran: time = 44.04 s     (88.1 %), step = 500 ms          (1 %)
    tran: time = 46.54 s     (93.1 %), step = 500 ms          (1 %)
    tran: time = 49.04 s     (98.1 %), step = 500 ms          (1 %)
Number of accepted tran steps =             655

Maximum value achieved for any signal of each quantity: 
V: V(vout_filt) = 3.3 V
I: I(V8:p) = 6.268 uA

~~~~~~~~~~~~~~~~~~~~~~~~~~~~~~~~~
Post-Transient Simulation Summary
~~~~~~~~~~~~~~~~~~~~~~~~~~~~~~~~~
   -   To further speed up simulation, consider
          add ++aps on command line
   -   Non-default settings that could significantly slow down simulation
          errpreset = conservative, default moderate
          reltol = 10e-06, default 100e-06 (conservative)
~~~~~~~~~~~~~~~~~~~~~~~~~~~~~~~~~


During simulation, the CPU load for active processors is :
         0 (48.8 %)      1 (15.2 %)      2 (24.8 %)      3 (12.7 %)
         4 (56.1 %)      5 (14.9 %)      6 (7.8 %)       7 (10.0 %)
         8 (19.2 %)      9 (5.5 %)      10 (10.1 %)     11 (15.1 %)
        12 (28.3 %)     13 (7.4 %)      14 (48.7 %)     15 (40.4 %)
        16 (19.1 %)     17 (29.0 %)     18 (27.3 %)     19 (48.2 %)
        20 (47.0 %)     21 (50.5 %)     22 (39.5 %)     23 (19.1 %)
        24 (91.9 %)     25 (25.6 %)     26 (27.5 %)     27 (7.1 %)
        28 (42.2 %)     29 (18.0 %)     30 (16.3 %)     31 (33.0 %)
        32 (26.3 %)     33 (21.9 %)     34 (14.1 %)     35 (11.6 %)
        36 (32.7 %)     37 (30.3 %)     38 (9.8 %)      39 (26.1 %)
        40 (10.5 %)     41 (7.3 %)      42 (29.1 %)     43 (25.7 %)
        44 (29.3 %)     45 (46.7 %)     46 (37.5 %)     47 (25.6 %)
        Total: 1290.7%
Initial condition solution time: CPU = 2.567 ms, elapsed = 2.56896 ms.
Intrinsic tran analysis time:    CPU = 405.508 ms, elapsed = 407.049 ms.
Total time required for tran analysis `tran': CPU = 410.441 ms, elapsed = 412.652 ms, util. = 99.5%.
Time accumulated: CPU = 45.5426 s, elapsed = 47.6971 s.
Peak resident memory used = 215 Mbytes.


Notice from spectre during transient analysis `tran', during Monte Carlo analysis `mc1'.
    34 warnings suppressed.

finalTimeOP: writing operating point information to rawfile.

Opening the PSF file ../psf/mc1_separate/099/finalTimeOP.info ...
modelParameter: writing model parameter values to rawfile.

Opening the PSF file ../psf/mc1_separate/099/modelParameter.info ...
element: writing instance parameter values to rawfile.

Opening the PSF file ../psf/mc1_separate/099/element.info ...
outputParameter: writing output parameter values to rawfile.

Opening the PSF file ../psf/mc1_separate/099/outputParameter.info ...
designParamVals: writing netlist parameters to rawfile.

Opening the PSFASCII file ../psf/mc1_separate/099/designParamVals.info ...
primitives: writing primitives to rawfile.

Opening the PSFASCII file ../psf/mc1_separate/099/primitives.info.primitives ...
subckts: writing subcircuits to rawfile.

Opening the PSFASCII file ../psf/mc1_separate/099/subckts.info.subckts ...
    mc1: iteration = 99            (99 %), step = 1            (1.01 %)
100 100.00% 

*****************************************************************************************
* 
* INFO: AMS_processOption = C35B4C3
* 
* INFO: Valid Modules  PIP VG5 HIRES
* 
*****************************************************************************************


Notice from spectre during Monte Carlo analysis `mc1'.
    V8: `period' has the unusually large value of 100 s.


***********************************************
Transient Analysis `tran': time = (0 s -> 50 s)
***********************************************

Opening the PSF file ../psf/mc1_separate/100/tran.tran.tran ...

Warning from spectre during check, during IC analysis, during transient analysis `tran', during Monte Carlo analysis `mc1'.
    WARNING (CMI-2943): Parameter checks have been ignored because the valid value for parameter 'trise' could not be found in 'C1'.
    WARNING (CMI-2943): Parameter checks have been ignored because the valid value for parameter 'trise' could not be found in 'I0.R2.CM'.
    WARNING (CMI-2943): Parameter checks have been ignored because the valid value for parameter 'trise' could not be found in 'I0.R2.CS1'.
    WARNING (CMI-2943): Parameter checks have been ignored because the valid value for parameter 'trise' could not be found in 'I0.R2.CS0'.
    WARNING (CMI-2943): Parameter checks have been ignored because the valid value for parameter 'trise' could not be found in 'I0.C3.C1'.
        Further occurrences of this warning will be suppressed.

Convergence achieved in 12 iterations.
DC simulation time: CPU = 2.539 ms, elapsed = 2.53892 ms.
Important parameter values:
    start = 0 s
    outputstart = 0 s
    stop = 50 s
    step = 50 ms
    maxstep = 500 ms
    ic = all
    useprevic = no
    skipdc = no
    reltol = 10e-06
    abstol(V) = 1 uV
    abstol(I) = 1 pA
    temp = -40 C
    tnom = 27 C
    tempeffects = all
    errpreset = conservative
    method = gear2only
    lteratio = 10
    relref = alllocal
    cmin = 0 F
    gmin = 1 pS
    rabsshort = 1 mOhm


Notice from spectre during transient analysis `tran', during Monte Carlo analysis `mc1'.
    Multithreading is disabled due to the size of the design being too small.


Output and IC/nodeset summary:
                 save   8       (current)
                 save   87      (voltage)

    tran: time = 1.318 s     (2.64 %), step = 111.7 ms     (223 m%)
    tran: time = 3.851 s      (7.7 %), step = 295.5 ms     (591 m%)
    tran: time = 6.718 s     (13.4 %), step = 500 ms          (1 %)
    tran: time = 9.218 s     (18.4 %), step = 500 ms          (1 %)
    tran: time = 11.72 s     (23.4 %), step = 500 ms          (1 %)
    tran: time = 14.22 s     (28.4 %), step = 500 ms          (1 %)
    tran: time = 16.72 s     (33.4 %), step = 500 ms          (1 %)
    tran: time = 19.22 s     (38.4 %), step = 500 ms          (1 %)
    tran: time = 21.72 s     (43.4 %), step = 500 ms          (1 %)
    tran: time = 24.22 s     (48.4 %), step = 500 ms          (1 %)
    tran: time = 26.72 s     (53.4 %), step = 500 ms          (1 %)
    tran: time = 29.22 s     (58.4 %), step = 500 ms          (1 %)
    tran: time = 31.72 s     (63.4 %), step = 500 ms          (1 %)
    tran: time = 34.22 s     (68.4 %), step = 497.4 ms     (995 m%)
    tran: time = 36.3 s      (72.6 %), step = 174 ms       (348 m%)
    tran: time = 38.95 s     (77.9 %), step = 209.8 ms     (420 m%)
    tran: time = 41.28 s     (82.6 %), step = 448.4 ms     (897 m%)
    tran: time = 44.2 s      (88.4 %), step = 500 ms          (1 %)
    tran: time = 46.7 s      (93.4 %), step = 500 ms          (1 %)
    tran: time = 49.2 s      (98.4 %), step = 500 ms          (1 %)
Number of accepted tran steps =             653

Maximum value achieved for any signal of each quantity: 
V: V(vout_filt) = 3.3 V
I: I(V8:p) = 6.647 uA

~~~~~~~~~~~~~~~~~~~~~~~~~~~~~~~~~
Post-Transient Simulation Summary
~~~~~~~~~~~~~~~~~~~~~~~~~~~~~~~~~
   -   To further speed up simulation, consider
          add ++aps on command line
   -   Non-default settings that could significantly slow down simulation
          errpreset = conservative, default moderate
          reltol = 10e-06, default 100e-06 (conservative)
~~~~~~~~~~~~~~~~~~~~~~~~~~~~~~~~~


During simulation, the CPU load for active processors is :
         0 (48.4 %)      1 (16.0 %)      2 (25.5 %)      3 (12.8 %)
         4 (55.5 %)      5 (14.9 %)      6 (7.7 %)       7 (9.9 %)
         8 (19.2 %)      9 (5.4 %)      10 (10.0 %)     11 (15.0 %)
        12 (29.0 %)     13 (7.3 %)      14 (48.2 %)     15 (40.9 %)
        16 (19.0 %)     17 (28.9 %)     18 (27.3 %)     19 (47.7 %)
        20 (47.0 %)     21 (50.0 %)     22 (39.7 %)     23 (18.9 %)
        24 (91.0 %)     25 (26.3 %)     26 (28.2 %)     27 (8.0 %)
        28 (41.8 %)     29 (17.8 %)     30 (16.1 %)     31 (32.6 %)
        32 (26.1 %)     33 (21.7 %)     34 (13.9 %)     35 (12.4 %)
        36 (32.4 %)     37 (30.1 %)     38 (9.7 %)      39 (25.9 %)
        40 (10.4 %)     41 (7.3 %)      42 (29.8 %)     43 (25.5 %)
        44 (30.0 %)     45 (47.2 %)     46 (37.4 %)     47 (25.4 %)
        Total: 1291.5%
Initial condition solution time: CPU = 2.579 ms, elapsed = 2.58112 ms.
Intrinsic tran analysis time:    CPU = 402.318 ms, elapsed = 404.389 ms.
Total time required for tran analysis `tran': CPU = 407.576 ms, elapsed = 410.375 ms, util. = 99.3%.
Time accumulated: CPU = 45.9918 s, elapsed = 48.1606 s.
Peak resident memory used = 215 Mbytes.


Notice from spectre during transient analysis `tran', during Monte Carlo analysis `mc1'.
    34 warnings suppressed.

finalTimeOP: writing operating point information to rawfile.

Opening the PSF file ../psf/mc1_separate/100/finalTimeOP.info ...
modelParameter: writing model parameter values to rawfile.

Opening the PSF file ../psf/mc1_separate/100/modelParameter.info ...
element: writing instance parameter values to rawfile.

Opening the PSF file ../psf/mc1_separate/100/element.info ...
outputParameter: writing output parameter values to rawfile.

Opening the PSF file ../psf/mc1_separate/100/outputParameter.info ...
designParamVals: writing netlist parameters to rawfile.

Opening the PSFASCII file ../psf/mc1_separate/100/designParamVals.info ...
primitives: writing primitives to rawfile.

Opening the PSFASCII file ../psf/mc1_separate/100/primitives.info.primitives ...
subckts: writing subcircuits to rawfile.

Opening the PSFASCII file ../psf/mc1_separate/100/subckts.info.subckts ...
    mc1: iteration = 100          (100 %), step = 1            (1.01 %)
Total time required for montecarlo analysis `mc1': CPU = 45.5299 s, elapsed = 46.9525 s, util. = 97%.
Time accumulated: CPU = 46.0204 s, elapsed = 48.2028 s.
Peak resident memory used = 215 Mbytes.

Licensing Information:
Lic Summary:
[16:46:53.047355] Cdslmd servers:3000@lic08.ug.kth.se:29000@lic06.ug.kth.se
[16:46:53.047394] Feature usage summary:
[16:46:53.047395] Virtuoso_Multi_mode_Simulation


Aggregate audit (4:46:53 PM, Wed Apr 15, 2026):
Time used: CPU = 46 s, elapsed = 48.2 s, util. = 95.5%.
Time spent in licensing: elapsed = 210 ms.
Peak memory used = 215 Mbytes.
Simulation started at: 4:46:04 PM, Wed Apr 15, 2026, ended at: 4:46:53 PM, Wed Apr 15, 2026, with elapsed time (wall clock): 48.2 s.
spectre completes with 0 errors, 522 warnings, and 310 notices.
