
Spectre (R) Circuit Simulator
Version 24.1.0.288.isr5 64bit -- 3 Apr 2025
Copyright (C) 1989-2025 Cadence Design Systems, Inc. All rights reserved worldwide. Cadence and Spectre are registered trademarks of Cadence Design Systems, Inc. All others are the property of their respective holders.

Includes RSA BSAFE(R) Cryptographic or Security Protocol Software from RSA Security, Inc.

User: davidevi   Host: il2244vt26_davidevi   HostID: 11AC2C00   PID: 1024227
Memory  available: 3.0285 TB  physical: 3.2467 TB
Linux   : Rocky Linux release 8.10 (Green Obsidian)
CPU Type: Intel(R) Xeon(R) CPU E7-8857 v2 @ 3.00GHz
        Socket: Processors [Frequency]
        0:       0 [2992.0],  1 [1200.0],  2 [1200.0],  3 [2995.1],  4 [1200.0]
                 5 [2975.8],  6 [2800.0],  7 [2999.9],  8 [2999.9],  9 [2948.0]
                10 [1200.0], 11 [1700.0]
        1:      12 [1200.0], 13 [1200.0], 14 [1200.0], 15 [3297.3], 16 [1200.0]
                17 [3405.1], 18 [3405.1], 19 [2400.0], 20 [1200.0], 21 [1200.0]
                22 [1200.0], 23 [1200.0]
        2:      24 [1200.0], 25 [2999.9], 26 [1200.0], 27 [3600.0], 28 [2999.9]
                29 [2999.9], 30 [1200.0], 31 [1200.0], 32 [2200.0], 33 [2500.0]
                34 [1200.0], 35 [1200.0]
        3:      36 [1200.0], 37 [1200.0], 38 [2999.9], 39 [1200.0], 40 [2999.9]
                41 [1200.0], 42 [2999.9], 43 [2999.9], 44 [1200.0], 45 [1200.0]
                46 [2700.0], 47 [1200.0]
        
System load averages (1min, 5min, 15min) : 23.4 %, 23.3 %, 24.2 %
HPC is enabled


Simulating `input.scs' on il2244vt26_davidevi at 4:50:03 PM, Wed Apr 15, 2026 (process id: 1024227).
Current working directory: /home/davidevi/Desktop/myproject/Sim/VGA/VGA_1_wakeup_tb/adexl/results/data/MonteCarlo.0/10/wakeup/groupRunDataDir/netlist
Command line:
    /opt/tools/cadence/installs/SPECTRE241/tools/bin/spectre -64  \
        input.scs +escchars +log ../psf/spectre.out -format psfbin  \
        +rtsf -raw ../psf +aps +mt +lqtimeout 900 -maxw 5 -maxn 5  \
        +param /opt/pdk/ams/410/spectre/ams_range.lmts -env ade  \
        -ahdllibdir  \
        /home/davidevi/Desktop/myproject/Sim/VGA/VGA_1_wakeup_tb/adexl/results/data/MonteCarlo.0/sharedData/Job459/ahdl/input.ahdlSimDB  \
        +logstatus  \
        +adespetkn=0001089D13A302B663E41FB550AF0DF415A679A322D5069144BF588C12F604E07EF416DC01A319B562BB63D340EE06A745A305D544E340BD71AA638915E94F9243AF79D15D9175FF34986BDD0AF002BA50FD7FD707E002A700AC1C841EFF40E20EA979D120F874D3349879D118F874D33498100ED942B5695D470000364B

Simulation Id: rthu96E24n6Pmow7
Licensing Information:
[16:50:03.121722] Configured Lic search path (24.01-s002): 3000@lic08.ug.kth.se:29000@lic06.ug.kth.se

Licensing Information:
[16:50:03.476121] Periodic Lic check successful

Loading /opt/tools/cadence/installs/SPECTRE241/tools.lnx86/cmi/lib/64bit/5.0/libinfineon_sh.so ...
Loading /opt/tools/cadence/installs/SPECTRE241/tools.lnx86/cmi/lib/64bit/5.0/libphilips_I_sh.so ...
Loading /opt/tools/cadence/installs/SPECTRE241/tools.lnx86/cmi/lib/64bit/5.0/libphilips_sh.so ...
Loading /opt/tools/cadence/installs/SPECTRE241/tools.lnx86/cmi/lib/64bit/5.0/libsparam_sh.so ...
Loading /opt/tools/cadence/installs/SPECTRE241/tools.lnx86/cmi/lib/64bit/5.0/libstmodels_sh.so ...

Warning from spectre.
    WARNING (SPECTRE-691): This CPU processor does not support x86 advanced vector extensions instructions. This may affect math operations and slow down the simulation.

Reading file:  /home/davidevi/Desktop/myproject/Sim/VGA/VGA_1_wakeup_tb/adexl/results/data/MonteCarlo.0/10/wakeup/groupRunDataDir/netlist/input.scs
Reading file:  /opt/pdk/ams/410/spectre/ams_range.lmts

Warning from spectre during read of parameter soft limits file `/opt/pdk/ams/410/spectre/ams_range.lmts', during circuit read-in.
    WARNING (SPECTRE-8360): line 1511: `ac' is an undefined primitive device.
    WARNING (SPECTRE-8360): line 1512: `ac' is an undefined primitive device.
    WARNING (SPECTRE-8360): line 1513: `ac' is an undefined primitive device.
    WARNING (SPECTRE-8360): line 1514: `ac' is an undefined primitive device.
    WARNING (SPECTRE-8360): line 1515: `ac' is an undefined primitive device.
        Further occurrences of this warning will be suppressed.

Reading file:  /opt/tools/cadence/installs/SPECTRE241/tools.lnx86/spectre/etc/configs/spectre.cfg
Reading file:  /opt/pdk/ams/410/spectre/c35/soac/soac.scs
Reading file:  /opt/pdk/ams/410/spectre/c35/soac/processOption.scs
Reading file:  /opt/pdk/ams/410/spectre/c35/soac/process.scs
Reading file:  /opt/pdk/ams/410/spectre/c35/soac/soac.va

Warning from spectre during AHDL read-in.
    WARNING (VACOMP-2435): The environment variable CDS_AHDLCMI_ENABLE is no longer supported. Therefore, the simulator will use the default compiled C code flow.

Reading link:  /opt/tools/cadence/installs/SPECTRE241/tools.lnx86/spectre/etc/ahdl/constants.h
Reading file:  /opt/tools/cadence/installs/SPECTRE241/tools.lnx86/spectre/etc/ahdl/constants.vams
Reading link:  /opt/tools/cadence/installs/SPECTRE241/tools.lnx86/spectre/etc/ahdl/discipline.h
Reading file:  /opt/tools/cadence/installs/SPECTRE241/tools.lnx86/spectre/etc/ahdl/disciplines.vams
Reading file:  /opt/pdk/ams/410/spectre/c35/processOption/C35B4C3.scs
Reading file:  /opt/pdk/ams/410/spectre/c35/soac/cmos53.scs
Reading file:  /opt/pdk/ams/410/spectre/c35/soac/res.scs
Reading file:  /opt/pdk/ams/410/spectre/c35/soac/cap.scs
Reading file:  /opt/pdk/ams/410/spectre/c35/soac/bip.scs
Reading file:  /opt/pdk/ams/410/spectre/c35/soac/ind.scs
Reading file:  /opt/pdk/ams/410/spectre/c35/soac/esddiode.scs
Time for NDB Parsing: CPU = 171.752 ms, elapsed = 336.367 ms.
Time accumulated: CPU = 375.179 ms, elapsed = 336.37 ms.
Peak resident memory used = 175 Mbytes.

Existing shared object for module modn_ahdl is up to date.
Installed compiled interface for modn_ahdl.
Existing shared object for module modp_ahdl is up to date.
Installed compiled interface for modp_ahdl.
Existing shared object for module cpoly_ahdl is up to date.
Installed compiled interface for cpoly_ahdl.
Existing shared object for module rpolyh_ahdl is up to date.
Installed compiled interface for rpolyh_ahdl.
Existing shared object for module bsource_19b458 is up to date.
Installed compiled interface for bsource_19b458.
Time for Elaboration: CPU = 57.756 ms, elapsed = 60.4751 ms.
Time accumulated: CPU = 433.067 ms, elapsed = 396.976 ms.
Peak resident memory used = 188 Mbytes.


Notice from spectre during hierarchy flattening.
    The value 'psf' specified for the 'checklimitdest' option will no longer be supported in future releases. Use 'spectre -h' to see other recommended values for the 'checklimitdest' option.


*****************************************************************************************
* 
* INFO: AMS_processOption = C35B4C3
* 
* INFO: Valid Modules  PIP VG5 HIRES
* 
*****************************************************************************************


Notice from spectre during hierarchy flattening.
    V8: `period' has the unusually large value of 100 s.


Time for EDB Visiting: CPU = 8.872 ms, elapsed = 8.90088 ms.
Time accumulated: CPU = 442.094 ms, elapsed = 406.031 ms.
Peak resident memory used = 191 Mbytes.

Loading /opt/tools/cadence/installs/SPECTRE241/tools.lnx86/mdl/lib/64bit/libSpectreEH_sh.so ...

Warning from spectre during initial setup.
    WARNING (SPECTRE-16460): SOAC_cvarm_vspsub:Specified subcircuit master `cvarm' was not found.
    WARNING (SPECTRE-16462): SOAC_cvarm_vspsub:Error in specification of subcircuit master. Assert is ignored.
    WARNING (SPECTRE-16460): SOAC_cvarm_vbs:Specified subcircuit master `cvarm' was not found.
    WARNING (SPECTRE-16462): SOAC_cvarm_vbs:Error in specification of subcircuit master. Assert is ignored.
    WARNING (SPECTRE-16460): SOAC_cvarm_vgb:Specified subcircuit master `cvarm' was not found.
    WARNING (SPECTRE-16462): SOAC_cvarm_vgb:Error in specification of subcircuit master. Assert is ignored.
    WARNING (SPECTRE-16460): SOAC_cvart_vspsub:Specified subcircuit master `cvart' was not found.
    WARNING (SPECTRE-16462): SOAC_cvart_vspsub:Error in specification of subcircuit master. Assert is ignored.
    WARNING (SPECTRE-16460): SOAC_cvart_vbs:Specified subcircuit master `cvart' was not found.
        Further occurrences of this warning will be suppressed.
    WARNING (SPECTRE-16462): SOAC_cvart_vbs:Error in specification of subcircuit master. Assert is ignored.
        Further occurrences of this warning will be suppressed.
Notice from spectre during topology check.
    Only one connection to the following 54 nodes:
        I0.MN6.psub!
        I0.MN5.psub!
        I0.MN4.psub!
        I0.MN3.psub!
        I0.MN2.psub!
        Further occurrences of this notice will be suppressed.
Notice from spectre during initial setup.
    Multithreading is disabled due to the size of the design being too small.


Netlist title:
        // Point Netlist Generated on: Apr 15 16:50:02 2026


Global user options:
         psfversion = 1.4.0
            vabstol = 1e-06
            iabstol = 1e-12
               temp = -40
           homotopy = 5
              limit = delta
         compatible = spice2
               gmin = 1e-12
             rforce = 1
           maxnotes = 5
           maxwarns = 5
             digits = 5
               cols = 80
             pivrel = 0.001
           sensfile = ../psf/sens.output
     checklimitdest = psf
     enable_pre_ver = yes
      ignorezerovar = yes
               save = allpub
             reltol = 0.0001
               tnom = 27
             scalem = 1
              scale = 1

Scoped user options:

Circuit inventory:
              nodes 88
            bsim3v3 35    
     bsource_19b458 2     
          capacitor 38    
         cpoly_ahdl 17    
            isource 1     
          modn_ahdl 19    
          modp_ahdl 16    
           resistor 1     
        rpolyh_ahdl 2     
            vsource 8     

Analysis and control statement inventory:
               info 7     
         montecarlo 1     
               tran 1     

Output statements:
             .probe 0     
           .measure 0     
               save 0     

Design checks inventory:
          paramtest 55    
             assert 175   


Notice from spectre during initial setup.
    APS enabled.
    1 notice suppressed.
    72 warnings suppressed.

Time for parsing: CPU = 18.837 ms, elapsed = 637.604 ms.
Time accumulated: CPU = 461.037 ms, elapsed = 1.04374 s.
Peak resident memory used = 198 Mbytes.

~~~~~~~~~~~~~~~~~~~~~~
Pre-Simulation Summary
~~~~~~~~~~~~~~~~~~~~~~
   -   (APS) Multi-threading. The recommended number of threads is 1, consider adding +mt=1 on command line.
~~~~~~~~~~~~~~~~~~~~~~

**************************************************
Monte Carlo Analysis `mc1': iteration = (1 -> 100)
**************************************************
Important parameter values:
    seed = 12345
    sampling = lds
    variations = all
    firstrun = 1
    numruns = 100
    nullmfactorcorrelation = no
    donominal = yes
    method = standard

**** Performing nominal run for `mc1'

Notice from spectre during transient analysis `tran', during Monte Carlo analysis `mc1'.
    No checklimit analysis defined for asserts. A default checklimit analysis 'SpectreChecklimitAnal' has been created with all asserts enabled.


***********************************************
Transient Analysis `tran': time = (0 s -> 50 s)
***********************************************

Warning from spectre during check, during IC analysis, during transient analysis `tran', during Monte Carlo analysis `mc1'.
    WARNING (CMI-2943): Parameter checks have been ignored because the valid value for parameter 'trise' could not be found in 'C1'.
    WARNING (CMI-2943): Parameter checks have been ignored because the valid value for parameter 'trise' could not be found in 'I0.R2.CM'.
    WARNING (CMI-2943): Parameter checks have been ignored because the valid value for parameter 'trise' could not be found in 'I0.R2.CS1'.
    WARNING (CMI-2943): Parameter checks have been ignored because the valid value for parameter 'trise' could not be found in 'I0.R2.CS0'.
    WARNING (CMI-2943): Parameter checks have been ignored because the valid value for parameter 'trise' could not be found in 'I0.C3.C1'.
        Further occurrences of this warning will be suppressed.

Convergence achieved in 12 iterations.
DC simulation time: CPU = 2.971 ms, elapsed = 2.97117 ms.

Opening the PSF file ../psf/nom/tran.tran.tran ...
Important parameter values:
    start = 0 s
    outputstart = 0 s
    stop = 50 s
    step = 50 ms
    maxstep = 500 ms
    ic = all
    useprevic = no
    skipdc = no
    reltol = 10e-06
    abstol(V) = 1 uV
    abstol(I) = 1 pA
    temp = -40 C
    tnom = 27 C
    tempeffects = all
    errpreset = conservative
    method = gear2only
    lteratio = 10
    relref = alllocal
    cmin = 0 F
    gmin = 1 pS
    rabsshort = 1 mOhm


Notice from spectre during transient analysis `tran', during Monte Carlo analysis `mc1'.
    Multithreading is disabled due to the size of the design being too small.


Output and IC/nodeset summary:
                 save   8       (current)
                 save   87      (voltage)

    tran: time = 1.359 s     (2.72 %), step = 120.1 ms     (240 m%)
    tran: time = 4.058 s     (8.12 %), step = 312.9 ms     (626 m%)
    tran: time = 6.547 s     (13.1 %), step = 500 ms          (1 %)
    tran: time = 9.047 s     (18.1 %), step = 500 ms          (1 %)
    tran: time = 11.55 s     (23.1 %), step = 500 ms          (1 %)
    tran: time = 14.05 s     (28.1 %), step = 500 ms          (1 %)
    tran: time = 16.55 s     (33.1 %), step = 500 ms          (1 %)
    tran: time = 19.05 s     (38.1 %), step = 500 ms          (1 %)
    tran: time = 21.55 s     (43.1 %), step = 500 ms          (1 %)
    tran: time = 24.05 s     (48.1 %), step = 500 ms          (1 %)
    tran: time = 26.55 s     (53.1 %), step = 500 ms          (1 %)
    tran: time = 29.05 s     (58.1 %), step = 500 ms          (1 %)
    tran: time = 31.55 s     (63.1 %), step = 500 ms          (1 %)
    tran: time = 34.05 s     (68.1 %), step = 500 ms          (1 %)
    tran: time = 36.55 s     (73.1 %), step = 500 ms          (1 %)
    tran: time = 39.05 s     (78.1 %), step = 500 ms          (1 %)
    tran: time = 41.55 s     (83.1 %), step = 500 ms          (1 %)
    tran: time = 43.91 s     (87.8 %), step = 400.3 ms     (801 m%)
    tran: time = 46.25 s     (92.5 %), step = 9.467 ms    (18.9 m%)
    tran: time = 49.2 s      (98.4 %), step = 461.4 ms     (923 m%)
Number of accepted tran steps =             650

Maximum value achieved for any signal of each quantity: 
V: V(vout_filt) = 3.3 V
I: I(V8:p) = 6.462 uA

~~~~~~~~~~~~~~~~~~~~~~~~~~~~~~~~~
Post-Transient Simulation Summary
~~~~~~~~~~~~~~~~~~~~~~~~~~~~~~~~~
   -   To further speed up simulation, consider
          add ++aps on command line
   -   Non-default settings that could significantly slow down simulation
          errpreset = conservative, default moderate
          reltol = 10e-06, default 100e-06 (conservative)
~~~~~~~~~~~~~~~~~~~~~~~~~~~~~~~~~


During simulation, the CPU load for active processors is :
         0 (48.9 %)      1 (37.4 %)      2 (5.9 %)       3 (6.6 %)
         4 (3.0 %)       5 (9.6 %)       6 (4.3 %)       7 (5.8 %)
         8 (100.0 %)     9 (19.0 %)     10 (1.5 %)      11 (5.8 %)
        12 (12.1 %)     13 (5.1 %)      14 (2.2 %)      15 (4.3 %)
        16 (2.9 %)      17 (29.4 %)     18 (70.7 %)     19 (12.2 %)
        20 (4.4 %)      21 (1.5 %)      22 (34.6 %)     23 (3.6 %)
        24 (7.1 %)      25 (5.1 %)      26 (3.7 %)      27 (4.3 %)
        28 (100.0 %)    29 (51.4 %)     30 (50.0 %)     31 (6.4 %)
        32 (5.8 %)      33 (3.6 %)      34 (2.9 %)      35 (3.7 %)
        36 (2.2 %)      37 (3.7 %)      38 (25.5 %)     39 (10.9 %)
        40 (88.7 %)     41 (1.5 %)      42 (43.9 %)     43 (25.2 %)
        44 (4.4 %)      45 (2.9 %)      46 (79.9 %)     47 (13.3 %)
        Total: 977.0%
Initial condition solution time: CPU = 3.016 ms, elapsed = 3.0179 ms.
Intrinsic tran analysis time:    CPU = 400.477 ms, elapsed = 402.024 ms.
Total time required for tran analysis `tran': CPU = 486.167 ms, elapsed = 491.352 ms, util. = 98.9%.
Time accumulated: CPU = 974.387 ms, elapsed = 1.56372 s.
Peak resident memory used = 209 Mbytes.


Notice from spectre during transient analysis `tran', during Monte Carlo analysis `mc1'.
    34 warnings suppressed.

finalTimeOP: writing operating point information to rawfile.

Opening the PSF file ../psf/nom/finalTimeOP.info ...
modelParameter: writing model parameter values to rawfile.

Opening the PSF file ../psf/nom/modelParameter.info ...
element: writing instance parameter values to rawfile.

Opening the PSF file ../psf/nom/element.info ...
outputParameter: writing output parameter values to rawfile.

Opening the PSF file ../psf/nom/outputParameter.info ...
designParamVals: writing netlist parameters to rawfile.

Opening the PSFASCII file ../psf/nom/designParamVals.info ...
primitives: writing primitives to rawfile.

Opening the PSFASCII file ../psf/nom/primitives.info.primitives ...
subckts: writing subcircuits to rawfile.

Opening the PSFASCII file ../psf/nom/subckts.info.subckts ...
Opening iteration number and data-directory mapping file:  /home/davidevi/Desktop/myproject/Sim/VGA/VGA_1_wakeup_tb/adexl/results/data/MonteCarlo.0/10/wakeup/groupRunDataDir/netlist/../psf/mc1.mapping

Statistical parameters:
    Defined process parameters: 629
    Defined mismatch parameters (subckt based): 86
    Non-referenced mismatch parameters: 80
    Number of random variables: 718
    Gaussian truncation for process parameters: 4.00 sigma
    Gaussian truncation for mismatch parameters: 4.00 sigma


Opening the PSF file ../psf/mc1_tran.montecarlo ...

Opening the PSF file ../psf/mc1_finalTimeOP.montecarlo ...

Opening the PSF file ../psf/mc1_modelParameter.montecarlo ...

Opening the PSF file ../psf/mc1_element.montecarlo ...

Opening the PSF file ../psf/mc1_outputParameter.montecarlo ...

Opening the PSF file ../psf/mc1_designParamVals.montecarlo ...

Opening the PSF file ../psf/mc1_primitives.montecarlo ...

Opening the PSF file ../psf/mc1_subckts.montecarlo ...

**** Performing monte carlo loop for `mc1'

1   0.00% 

*****************************************************************************************
* 
* INFO: AMS_processOption = C35B4C3
* 
* INFO: Valid Modules  PIP VG5 HIRES
* 
*****************************************************************************************


Notice from spectre at iteration = 1 during Monte Carlo analysis `mc1'.
    V8: `period' has the unusually large value of 100 s.


***********************************************
Transient Analysis `tran': time = (0 s -> 50 s)
***********************************************

Opening the PSF file ../psf/mc1_separate/001/tran.tran.tran ...

Warning from spectre at iteration = 1 during check, during IC analysis, during transient analysis `tran', during Monte Carlo analysis `mc1'.
    WARNING (CMI-2943): Parameter checks have been ignored because the valid value for parameter 'trise' could not be found in 'C1'.
    WARNING (CMI-2943): Parameter checks have been ignored because the valid value for parameter 'trise' could not be found in 'I0.R2.CM'.
    WARNING (CMI-2943): Parameter checks have been ignored because the valid value for parameter 'trise' could not be found in 'I0.R2.CS1'.
    WARNING (CMI-2943): Parameter checks have been ignored because the valid value for parameter 'trise' could not be found in 'I0.R2.CS0'.
    WARNING (CMI-2943): Parameter checks have been ignored because the valid value for parameter 'trise' could not be found in 'I0.C3.C1'.
        Further occurrences of this warning will be suppressed.

Convergence achieved in 12 iterations.
DC simulation time: CPU = 2.835 ms, elapsed = 2.83694 ms.
Important parameter values:
    start = 0 s
    outputstart = 0 s
    stop = 50 s
    step = 50 ms
    maxstep = 500 ms
    ic = all
    useprevic = no
    skipdc = no
    reltol = 10e-06
    abstol(V) = 1 uV
    abstol(I) = 1 pA
    temp = -40 C
    tnom = 27 C
    tempeffects = all
    errpreset = conservative
    method = gear2only
    lteratio = 10
    relref = alllocal
    cmin = 0 F
    gmin = 1 pS
    rabsshort = 1 mOhm


Notice from spectre at iteration = 1 during transient analysis `tran', during Monte Carlo analysis `mc1'.
    Multithreading is disabled due to the size of the design being too small.


Output and IC/nodeset summary:
                 save   8       (current)
                 save   87      (voltage)

    tran: time = 1.359 s     (2.72 %), step = 131.5 ms     (263 m%)
    tran: time = 3.959 s     (7.92 %), step = 315.2 ms     (630 m%)
    tran: time = 6.458 s     (12.9 %), step = 500 ms          (1 %)
    tran: time = 8.958 s     (17.9 %), step = 500 ms          (1 %)
    tran: time = 11.46 s     (22.9 %), step = 500 ms          (1 %)
    tran: time = 13.96 s     (27.9 %), step = 500 ms          (1 %)
    tran: time = 16.46 s     (32.9 %), step = 500 ms          (1 %)
    tran: time = 18.96 s     (37.9 %), step = 500 ms          (1 %)
    tran: time = 21.46 s     (42.9 %), step = 500 ms          (1 %)
    tran: time = 23.96 s     (47.9 %), step = 500 ms          (1 %)
    tran: time = 26.46 s     (52.9 %), step = 500 ms          (1 %)
    tran: time = 28.96 s     (57.9 %), step = 500 ms          (1 %)
    tran: time = 31.46 s     (62.9 %), step = 500 ms          (1 %)
    tran: time = 33.96 s     (67.9 %), step = 500 ms          (1 %)
    tran: time = 36.46 s     (72.9 %), step = 500 ms          (1 %)
    tran: time = 38.96 s     (77.9 %), step = 500 ms          (1 %)
    tran: time = 41.46 s     (82.9 %), step = 500 ms          (1 %)
    tran: time = 43.96 s     (87.9 %), step = 500 ms          (1 %)
    tran: time = 46.46 s     (92.9 %), step = 214.5 ms     (429 m%)
    tran: time = 48.79 s     (97.6 %), step = 85.68 ms     (171 m%)
Number of accepted tran steps =             646

Maximum value achieved for any signal of each quantity: 
V: V(vout_filt) = 3.3 V
I: I(V8:p) = 6.355 uA

~~~~~~~~~~~~~~~~~~~~~~~~~~~~~~~~~
Post-Transient Simulation Summary
~~~~~~~~~~~~~~~~~~~~~~~~~~~~~~~~~
   -   To further speed up simulation, consider
          add ++aps on command line
   -   Non-default settings that could significantly slow down simulation
          errpreset = conservative, default moderate
          reltol = 10e-06, default 100e-06 (conservative)
~~~~~~~~~~~~~~~~~~~~~~~~~~~~~~~~~


During simulation, the CPU load for active processors is :
         0 (63.5 %)      1 (27.8 %)      2 (5.2 %)       3 (5.1 %)
         4 (5.1 %)       5 (7.6 %)       6 (4.5 %)       7 (4.1 %)
         8 (82.5 %)      9 (16.3 %)     10 (1.6 %)      11 (4.5 %)
        12 (11.4 %)     13 (5.6 %)      14 (1.5 %)      15 (3.0 %)
        16 (22.2 %)     17 (29.5 %)     18 (51.3 %)     19 (11.6 %)
        20 (3.6 %)      21 (2.0 %)      22 (53.3 %)     23 (6.1 %)
        24 (5.5 %)      25 (5.6 %)      26 (5.6 %)      27 (5.0 %)
        28 (100.0 %)    29 (66.0 %)     30 (35.5 %)     31 (5.0 %)
        32 (5.1 %)      33 (3.1 %)      34 (2.6 %)      35 (2.6 %)
        36 (2.6 %)      37 (11.8 %)     38 (35.0 %)     39 (11.7 %)
        40 (86.6 %)     41 (2.0 %)      42 (30.8 %)     43 (23.1 %)
        44 (3.1 %)      45 (3.0 %)      46 (70.4 %)     47 (26.0 %)
        Total: 976.4%
Initial condition solution time: CPU = 2.88 ms, elapsed = 2.882 ms.
Intrinsic tran analysis time:    CPU = 395.461 ms, elapsed = 396.976 ms.
Total time required for tran analysis `tran': CPU = 401.064 ms, elapsed = 403.251 ms, util. = 99.5%.
Time accumulated: CPU = 1.45567 s, elapsed = 2.0637 s.
Peak resident memory used = 213 Mbytes.


Notice from spectre during transient analysis `tran', during Monte Carlo analysis `mc1'.
    34 warnings suppressed.

finalTimeOP: writing operating point information to rawfile.

Opening the PSF file ../psf/mc1_separate/001/finalTimeOP.info ...
modelParameter: writing model parameter values to rawfile.

Opening the PSF file ../psf/mc1_separate/001/modelParameter.info ...
element: writing instance parameter values to rawfile.

Opening the PSF file ../psf/mc1_separate/001/element.info ...
outputParameter: writing output parameter values to rawfile.

Opening the PSF file ../psf/mc1_separate/001/outputParameter.info ...
designParamVals: writing netlist parameters to rawfile.

Opening the PSFASCII file ../psf/mc1_separate/001/designParamVals.info ...
primitives: writing primitives to rawfile.

Opening the PSFASCII file ../psf/mc1_separate/001/primitives.info.primitives ...
subckts: writing subcircuits to rawfile.

Opening the PSFASCII file ../psf/mc1_separate/001/subckts.info.subckts ...
2   1.01% 

*****************************************************************************************
* 
* INFO: AMS_processOption = C35B4C3
* 
* INFO: Valid Modules  PIP VG5 HIRES
* 
*****************************************************************************************


Notice from spectre during Monte Carlo analysis `mc1'.
    V8: `period' has the unusually large value of 100 s.


***********************************************
Transient Analysis `tran': time = (0 s -> 50 s)
***********************************************

Opening the PSF file ../psf/mc1_separate/002/tran.tran.tran ...

Warning from spectre during check, during IC analysis, during transient analysis `tran', during Monte Carlo analysis `mc1'.
    WARNING (CMI-2943): Parameter checks have been ignored because the valid value for parameter 'trise' could not be found in 'C1'.
    WARNING (CMI-2943): Parameter checks have been ignored because the valid value for parameter 'trise' could not be found in 'I0.R2.CM'.
    WARNING (CMI-2943): Parameter checks have been ignored because the valid value for parameter 'trise' could not be found in 'I0.R2.CS1'.
    WARNING (CMI-2943): Parameter checks have been ignored because the valid value for parameter 'trise' could not be found in 'I0.R2.CS0'.
    WARNING (CMI-2943): Parameter checks have been ignored because the valid value for parameter 'trise' could not be found in 'I0.C3.C1'.
        Further occurrences of this warning will be suppressed.

Convergence achieved in 12 iterations.
DC simulation time: CPU = 2.348 ms, elapsed = 2.3489 ms.
Important parameter values:
    start = 0 s
    outputstart = 0 s
    stop = 50 s
    step = 50 ms
    maxstep = 500 ms
    ic = all
    useprevic = no
    skipdc = no
    reltol = 10e-06
    abstol(V) = 1 uV
    abstol(I) = 1 pA
    temp = -40 C
    tnom = 27 C
    tempeffects = all
    errpreset = conservative
    method = gear2only
    lteratio = 10
    relref = alllocal
    cmin = 0 F
    gmin = 1 pS
    rabsshort = 1 mOhm


Notice from spectre during transient analysis `tran', during Monte Carlo analysis `mc1'.
    Multithreading is disabled due to the size of the design being too small.


Output and IC/nodeset summary:
                 save   8       (current)
                 save   87      (voltage)

    tran: time = 1.357 s     (2.71 %), step = 126.6 ms     (253 m%)
    tran: time = 3.865 s     (7.73 %), step = 304.1 ms     (608 m%)
    tran: time = 6.279 s     (12.6 %), step = 485.5 ms     (971 m%)
    tran: time = 8.779 s     (17.6 %), step = 500 ms          (1 %)
    tran: time = 11.28 s     (22.6 %), step = 500 ms          (1 %)
    tran: time = 13.78 s     (27.6 %), step = 500 ms          (1 %)
    tran: time = 16.28 s     (32.6 %), step = 500 ms          (1 %)
    tran: time = 18.78 s     (37.6 %), step = 500 ms          (1 %)
    tran: time = 21.28 s     (42.6 %), step = 500 ms          (1 %)
    tran: time = 23.78 s     (47.6 %), step = 500 ms          (1 %)
    tran: time = 26.28 s     (52.6 %), step = 500 ms          (1 %)
    tran: time = 28.78 s     (57.6 %), step = 500 ms          (1 %)
    tran: time = 31.28 s     (62.6 %), step = 500 ms          (1 %)
    tran: time = 33.78 s     (67.6 %), step = 500 ms          (1 %)
    tran: time = 36.28 s     (72.6 %), step = 500 ms          (1 %)
    tran: time = 38.78 s     (77.6 %), step = 500 ms          (1 %)
    tran: time = 41.28 s     (82.6 %), step = 500 ms          (1 %)
    tran: time = 43.78 s     (87.6 %), step = 500 ms          (1 %)
    tran: time = 46.33 s     (92.7 %), step = 130.8 ms     (262 m%)
    tran: time = 48.86 s     (97.7 %), step = 197.3 ms     (395 m%)
Number of accepted tran steps =             648

Maximum value achieved for any signal of each quantity: 
V: V(vout_filt) = 3.3 V
I: I(V8:p) = 6.41 uA

~~~~~~~~~~~~~~~~~~~~~~~~~~~~~~~~~
Post-Transient Simulation Summary
~~~~~~~~~~~~~~~~~~~~~~~~~~~~~~~~~
   -   To further speed up simulation, consider
          add ++aps on command line
   -   Non-default settings that could significantly slow down simulation
          errpreset = conservative, default moderate
          reltol = 10e-06, default 100e-06 (conservative)
~~~~~~~~~~~~~~~~~~~~~~~~~~~~~~~~~


During simulation, the CPU load for active processors is :
         0 (70.0 %)      1 (23.8 %)      2 (4.2 %)       3 (4.6 %)
         4 (5.4 %)       5 (10.4 %)      6 (6.2 %)       7 (4.5 %)
         8 (67.6 %)      9 (14.0 %)     10 (1.7 %)      11 (4.1 %)
        12 (10.8 %)     13 (5.7 %)      14 (7.9 %)      15 (2.9 %)
        16 (36.6 %)     17 (26.1 %)     18 (42.2 %)     19 (9.8 %)
        20 (3.3 %)      21 (2.1 %)      22 (62.2 %)     23 (6.6 %)
        24 (4.9 %)      25 (6.2 %)      26 (5.0 %)      27 (4.1 %)
        28 (100.0 %)    29 (70.4 %)     30 (29.9 %)     31 (4.5 %)
        32 (5.3 %)      33 (3.7 %)      34 (2.5 %)      35 (2.1 %)
        36 (2.5 %)      37 (9.6 %)      38 (43.2 %)     39 (27.4 %)
        40 (70.7 %)     41 (2.1 %)      42 (25.1 %)     43 (22.6 %)
        44 (2.5 %)      45 (3.3 %)      46 (60.2 %)     47 (39.3 %)
        Total: 980.1%
Initial condition solution time: CPU = 2.388 ms, elapsed = 2.39086 ms.
Intrinsic tran analysis time:    CPU = 397.309 ms, elapsed = 398.816 ms.
Total time required for tran analysis `tran': CPU = 402.019 ms, elapsed = 404.214 ms, util. = 99.5%.
Time accumulated: CPU = 1.89904 s, elapsed = 2.52081 s.
Peak resident memory used = 213 Mbytes.


Notice from spectre during transient analysis `tran', during Monte Carlo analysis `mc1'.
    34 warnings suppressed.

finalTimeOP: writing operating point information to rawfile.

Opening the PSF file ../psf/mc1_separate/002/finalTimeOP.info ...
modelParameter: writing model parameter values to rawfile.

Opening the PSF file ../psf/mc1_separate/002/modelParameter.info ...
element: writing instance parameter values to rawfile.

Opening the PSF file ../psf/mc1_separate/002/element.info ...
outputParameter: writing output parameter values to rawfile.

Opening the PSF file ../psf/mc1_separate/002/outputParameter.info ...
designParamVals: writing netlist parameters to rawfile.

Opening the PSFASCII file ../psf/mc1_separate/002/designParamVals.info ...
primitives: writing primitives to rawfile.

Opening the PSFASCII file ../psf/mc1_separate/002/primitives.info.primitives ...
subckts: writing subcircuits to rawfile.

Opening the PSFASCII file ../psf/mc1_separate/002/subckts.info.subckts ...
3   2.02% 

*****************************************************************************************
* 
* INFO: AMS_processOption = C35B4C3
* 
* INFO: Valid Modules  PIP VG5 HIRES
* 
*****************************************************************************************


Notice from spectre during Monte Carlo analysis `mc1'.
    V8: `period' has the unusually large value of 100 s.


***********************************************
Transient Analysis `tran': time = (0 s -> 50 s)
***********************************************

Opening the PSF file ../psf/mc1_separate/003/tran.tran.tran ...

Warning from spectre during check, during IC analysis, during transient analysis `tran', during Monte Carlo analysis `mc1'.
    WARNING (CMI-2943): Parameter checks have been ignored because the valid value for parameter 'trise' could not be found in 'C1'.
    WARNING (CMI-2943): Parameter checks have been ignored because the valid value for parameter 'trise' could not be found in 'I0.R2.CM'.
    WARNING (CMI-2943): Parameter checks have been ignored because the valid value for parameter 'trise' could not be found in 'I0.R2.CS1'.
    WARNING (CMI-2943): Parameter checks have been ignored because the valid value for parameter 'trise' could not be found in 'I0.R2.CS0'.
    WARNING (CMI-2943): Parameter checks have been ignored because the valid value for parameter 'trise' could not be found in 'I0.C3.C1'.
        Further occurrences of this warning will be suppressed.

Convergence achieved in 12 iterations.
DC simulation time: CPU = 2.435 ms, elapsed = 2.43592 ms.
Important parameter values:
    start = 0 s
    outputstart = 0 s
    stop = 50 s
    step = 50 ms
    maxstep = 500 ms
    ic = all
    useprevic = no
    skipdc = no
    reltol = 10e-06
    abstol(V) = 1 uV
    abstol(I) = 1 pA
    temp = -40 C
    tnom = 27 C
    tempeffects = all
    errpreset = conservative
    method = gear2only
    lteratio = 10
    relref = alllocal
    cmin = 0 F
    gmin = 1 pS
    rabsshort = 1 mOhm


Notice from spectre during transient analysis `tran', during Monte Carlo analysis `mc1'.
    Multithreading is disabled due to the size of the design being too small.


Output and IC/nodeset summary:
                 save   8       (current)
                 save   87      (voltage)

    tran: time = 1.261 s     (2.52 %), step = 103.7 ms     (207 m%)
    tran: time = 3.898 s      (7.8 %), step = 294.1 ms     (588 m%)
    tran: time = 6.743 s     (13.5 %), step = 500 ms          (1 %)
    tran: time = 9.243 s     (18.5 %), step = 500 ms          (1 %)
    tran: time = 11.74 s     (23.5 %), step = 500 ms          (1 %)
    tran: time = 14.24 s     (28.5 %), step = 500 ms          (1 %)
    tran: time = 16.74 s     (33.5 %), step = 500 ms          (1 %)
    tran: time = 19.24 s     (38.5 %), step = 500 ms          (1 %)
    tran: time = 21.74 s     (43.5 %), step = 500 ms          (1 %)
    tran: time = 24.24 s     (48.5 %), step = 500 ms          (1 %)
    tran: time = 26.74 s     (53.5 %), step = 500 ms          (1 %)
    tran: time = 29.24 s     (58.5 %), step = 500 ms          (1 %)
    tran: time = 31.74 s     (63.5 %), step = 500 ms          (1 %)
    tran: time = 34.24 s     (68.5 %), step = 500 ms          (1 %)
    tran: time = 36.74 s     (73.5 %), step = 500 ms          (1 %)
    tran: time = 39.24 s     (78.5 %), step = 500 ms          (1 %)
    tran: time = 41.65 s     (83.3 %), step = 424.7 ms     (849 m%)
    tran: time = 43.78 s     (87.6 %), step = 39.58 ms    (79.2 m%)
    tran: time = 46.59 s     (93.2 %), step = 353.7 ms     (707 m%)
    tran: time = 49.04 s     (98.1 %), step = 500 ms          (1 %)
Number of accepted tran steps =             654

Maximum value achieved for any signal of each quantity: 
V: V(vout_filt) = 3.3 V
I: I(V8:p) = 6.278 uA

~~~~~~~~~~~~~~~~~~~~~~~~~~~~~~~~~
Post-Transient Simulation Summary
~~~~~~~~~~~~~~~~~~~~~~~~~~~~~~~~~
   -   To further speed up simulation, consider
          add ++aps on command line
   -   Non-default settings that could significantly slow down simulation
          errpreset = conservative, default moderate
          reltol = 10e-06, default 100e-06 (conservative)
~~~~~~~~~~~~~~~~~~~~~~~~~~~~~~~~~


During simulation, the CPU load for active processors is :
         0 (74.3 %)      1 (20.5 %)      2 (3.9 %)       3 (4.6 %)
         4 (6.6 %)       5 (24.7 %)      6 (8.7 %)       7 (7.6 %)
         8 (57.9 %)      9 (19.8 %)     10 (2.5 %)      11 (3.5 %)
        12 (10.4 %)     13 (4.8 %)      14 (7.7 %)      15 (3.8 %)
        16 (35.8 %)     17 (22.9 %)     18 (35.9 %)     19 (17.9 %)
        20 (10.4 %)     21 (2.1 %)      22 (68.4 %)     23 (5.9 %)
        24 (6.9 %)      25 (5.2 %)      26 (4.6 %)      27 (3.8 %)
        28 (100.0 %)    29 (75.1 %)     30 (25.9 %)     31 (3.8 %)
        32 (4.8 %)      33 (3.2 %)      34 (2.5 %)      35 (2.8 %)
        36 (2.5 %)      37 (8.7 %)      38 (45.9 %)     39 (38.2 %)
        40 (59.9 %)     41 (1.7 %)      42 (21.1 %)     43 (20.1 %)
        44 (2.1 %)      45 (2.8 %)      46 (51.2 %)     47 (39.4 %)
        Total: 992.6%
Initial condition solution time: CPU = 2.483 ms, elapsed = 2.48408 ms.
Intrinsic tran analysis time:    CPU = 404.881 ms, elapsed = 406.657 ms.
Total time required for tran analysis `tran': CPU = 409.727 ms, elapsed = 412.125 ms, util. = 99.4%.
Time accumulated: CPU = 2.35006 s, elapsed = 2.98615 s.
Peak resident memory used = 213 Mbytes.


Notice from spectre during transient analysis `tran', during Monte Carlo analysis `mc1'.
    34 warnings suppressed.

finalTimeOP: writing operating point information to rawfile.

Opening the PSF file ../psf/mc1_separate/003/finalTimeOP.info ...
modelParameter: writing model parameter values to rawfile.

Opening the PSF file ../psf/mc1_separate/003/modelParameter.info ...
element: writing instance parameter values to rawfile.

Opening the PSF file ../psf/mc1_separate/003/element.info ...
outputParameter: writing output parameter values to rawfile.

Opening the PSF file ../psf/mc1_separate/003/outputParameter.info ...
designParamVals: writing netlist parameters to rawfile.

Opening the PSFASCII file ../psf/mc1_separate/003/designParamVals.info ...
primitives: writing primitives to rawfile.

Opening the PSFASCII file ../psf/mc1_separate/003/primitives.info.primitives ...
subckts: writing subcircuits to rawfile.

Opening the PSFASCII file ../psf/mc1_separate/003/subckts.info.subckts ...
4   3.03% 

*****************************************************************************************
* 
* INFO: AMS_processOption = C35B4C3
* 
* INFO: Valid Modules  PIP VG5 HIRES
* 
*****************************************************************************************


Notice from spectre during Monte Carlo analysis `mc1'.
    V8: `period' has the unusually large value of 100 s.


***********************************************
Transient Analysis `tran': time = (0 s -> 50 s)
***********************************************

Opening the PSF file ../psf/mc1_separate/004/tran.tran.tran ...

Warning from spectre during check, during IC analysis, during transient analysis `tran', during Monte Carlo analysis `mc1'.
    WARNING (CMI-2943): Parameter checks have been ignored because the valid value for parameter 'trise' could not be found in 'C1'.
    WARNING (CMI-2943): Parameter checks have been ignored because the valid value for parameter 'trise' could not be found in 'I0.R2.CM'.
    WARNING (CMI-2943): Parameter checks have been ignored because the valid value for parameter 'trise' could not be found in 'I0.R2.CS1'.
    WARNING (CMI-2943): Parameter checks have been ignored because the valid value for parameter 'trise' could not be found in 'I0.R2.CS0'.
    WARNING (CMI-2943): Parameter checks have been ignored because the valid value for parameter 'trise' could not be found in 'I0.C3.C1'.
        Further occurrences of this warning will be suppressed.

Convergence achieved in 12 iterations.
DC simulation time: CPU = 2.543 ms, elapsed = 2.54297 ms.
Important parameter values:
    start = 0 s
    outputstart = 0 s
    stop = 50 s
    step = 50 ms
    maxstep = 500 ms
    ic = all
    useprevic = no
    skipdc = no
    reltol = 10e-06
    abstol(V) = 1 uV
    abstol(I) = 1 pA
    temp = -40 C
    tnom = 27 C
    tempeffects = all
    errpreset = conservative
    method = gear2only
    lteratio = 10
    relref = alllocal
    cmin = 0 F
    gmin = 1 pS
    rabsshort = 1 mOhm


Notice from spectre during transient analysis `tran', during Monte Carlo analysis `mc1'.
    Multithreading is disabled due to the size of the design being too small.


Output and IC/nodeset summary:
                 save   8       (current)
                 save   87      (voltage)

    tran: time = 1.304 s     (2.61 %), step = 105.1 ms     (210 m%)
    tran: time = 3.985 s     (7.97 %), step = 299.6 ms     (599 m%)
    tran: time = 6.379 s     (12.8 %), step = 483.2 ms     (966 m%)
    tran: time = 8.879 s     (17.8 %), step = 500 ms          (1 %)
    tran: time = 11.38 s     (22.8 %), step = 500 ms          (1 %)
    tran: time = 13.88 s     (27.8 %), step = 500 ms          (1 %)
    tran: time = 16.38 s     (32.8 %), step = 500 ms          (1 %)
    tran: time = 18.88 s     (37.8 %), step = 500 ms          (1 %)
    tran: time = 21.38 s     (42.8 %), step = 500 ms          (1 %)
    tran: time = 23.88 s     (47.8 %), step = 500 ms          (1 %)
    tran: time = 26.38 s     (52.8 %), step = 500 ms          (1 %)
    tran: time = 28.88 s     (57.8 %), step = 500 ms          (1 %)
    tran: time = 31.38 s     (62.8 %), step = 500 ms          (1 %)
    tran: time = 33.88 s     (67.8 %), step = 500 ms          (1 %)
    tran: time = 36.38 s     (72.8 %), step = 500 ms          (1 %)
    tran: time = 38.88 s     (77.8 %), step = 500 ms          (1 %)
    tran: time = 41.59 s     (83.2 %), step = 344.5 ms     (689 m%)
    tran: time = 43.75 s     (87.5 %), step = 23.97 ms    (47.9 m%)
    tran: time = 46.64 s     (93.3 %), step = 482.1 ms     (964 m%)
    tran: time = 49.14 s     (98.3 %), step = 500 ms          (1 %)
Number of accepted tran steps =             660

Maximum value achieved for any signal of each quantity: 
V: V(vout_filt) = 3.3 V
I: I(V8:p) = 6.596 uA

~~~~~~~~~~~~~~~~~~~~~~~~~~~~~~~~~
Post-Transient Simulation Summary
~~~~~~~~~~~~~~~~~~~~~~~~~~~~~~~~~
   -   To further speed up simulation, consider
          add ++aps on command line
   -   Non-default settings that could significantly slow down simulation
          errpreset = conservative, default moderate
          reltol = 10e-06, default 100e-06 (conservative)
~~~~~~~~~~~~~~~~~~~~~~~~~~~~~~~~~


During simulation, the CPU load for active processors is :
         0 (77.6 %)      1 (18.3 %)      2 (4.2 %)       3 (5.1 %)
         4 (6.0 %)       5 (35.3 %)      6 (11.0 %)      7 (20.6 %)
         8 (50.1 %)      9 (31.0 %)     10 (3.0 %)      11 (3.6 %)
        12 (10.2 %)     13 (4.2 %)      14 (6.9 %)      15 (3.6 %)
        16 (31.0 %)     17 (20.1 %)     18 (31.4 %)     19 (29.3 %)
        20 (23.1 %)     21 (2.1 %)      22 (72.8 %)     23 (5.4 %)
        24 (9.2 %)      25 (5.1 %)      26 (4.3 %)      27 (4.2 %)
        28 (100.0 %)    29 (77.2 %)     30 (23.4 %)     31 (3.6 %)
        32 (5.1 %)      33 (3.9 %)      34 (3.0 %)      35 (2.7 %)
        36 (4.2 %)      37 (8.1 %)      38 (53.4 %)     39 (45.7 %)
        40 (51.9 %)     41 (1.8 %)      42 (18.5 %)     43 (17.9 %)
        44 (2.4 %)      45 (3.3 %)      46 (44.2 %)     47 (33.9 %)
        Total: 1032.9%
Initial condition solution time: CPU = 2.586 ms, elapsed = 2.58803 ms.
Intrinsic tran analysis time:    CPU = 408.356 ms, elapsed = 410.169 ms.
Total time required for tran analysis `tran': CPU = 414.009 ms, elapsed = 416.468 ms, util. = 99.4%.
Time accumulated: CPU = 2.807 s, elapsed = 3.45845 s.
Peak resident memory used = 214 Mbytes.


Notice from spectre during transient analysis `tran', during Monte Carlo analysis `mc1'.
    34 warnings suppressed.

finalTimeOP: writing operating point information to rawfile.

Opening the PSF file ../psf/mc1_separate/004/finalTimeOP.info ...
modelParameter: writing model parameter values to rawfile.

Opening the PSF file ../psf/mc1_separate/004/modelParameter.info ...
element: writing instance parameter values to rawfile.

Opening the PSF file ../psf/mc1_separate/004/element.info ...
outputParameter: writing output parameter values to rawfile.

Opening the PSF file ../psf/mc1_separate/004/outputParameter.info ...
designParamVals: writing netlist parameters to rawfile.

Opening the PSFASCII file ../psf/mc1_separate/004/designParamVals.info ...
primitives: writing primitives to rawfile.

Opening the PSFASCII file ../psf/mc1_separate/004/primitives.info.primitives ...
subckts: writing subcircuits to rawfile.

Opening the PSFASCII file ../psf/mc1_separate/004/subckts.info.subckts ...
    mc1: iteration = 4           (3.03 %), step = 1            (1.01 %)
5   4.04% 

*****************************************************************************************
* 
* INFO: AMS_processOption = C35B4C3
* 
* INFO: Valid Modules  PIP VG5 HIRES
* 
*****************************************************************************************


Notice from spectre during Monte Carlo analysis `mc1'.
    V8: `period' has the unusually large value of 100 s.


***********************************************
Transient Analysis `tran': time = (0 s -> 50 s)
***********************************************

Opening the PSF file ../psf/mc1_separate/005/tran.tran.tran ...

Warning from spectre during check, during IC analysis, during transient analysis `tran', during Monte Carlo analysis `mc1'.
    WARNING (CMI-2943): Parameter checks have been ignored because the valid value for parameter 'trise' could not be found in 'C1'.
    WARNING (CMI-2943): Parameter checks have been ignored because the valid value for parameter 'trise' could not be found in 'I0.R2.CM'.
    WARNING (CMI-2943): Parameter checks have been ignored because the valid value for parameter 'trise' could not be found in 'I0.R2.CS1'.
    WARNING (CMI-2943): Parameter checks have been ignored because the valid value for parameter 'trise' could not be found in 'I0.R2.CS0'.
    WARNING (CMI-2943): Parameter checks have been ignored because the valid value for parameter 'trise' could not be found in 'I0.C3.C1'.
        Further occurrences of this warning will be suppressed.

Convergence achieved in 12 iterations.
DC simulation time: CPU = 2.799 ms, elapsed = 2.80809 ms.
Important parameter values:
    start = 0 s
    outputstart = 0 s
    stop = 50 s
    step = 50 ms
    maxstep = 500 ms
    ic = all
    useprevic = no
    skipdc = no
    reltol = 10e-06
    abstol(V) = 1 uV
    abstol(I) = 1 pA
    temp = -40 C
    tnom = 27 C
    tempeffects = all
    errpreset = conservative
    method = gear2only
    lteratio = 10
    relref = alllocal
    cmin = 0 F
    gmin = 1 pS
    rabsshort = 1 mOhm


Notice from spectre during transient analysis `tran', during Monte Carlo analysis `mc1'.
    Multithreading is disabled due to the size of the design being too small.


Output and IC/nodeset summary:
                 save   8       (current)
                 save   87      (voltage)

    tran: time = 1.364 s     (2.73 %), step = 125.6 ms     (251 m%)
    tran: time = 3.854 s     (7.71 %), step = 302 ms       (604 m%)
    tran: time = 6.251 s     (12.5 %), step = 482.3 ms     (965 m%)
    tran: time = 8.751 s     (17.5 %), step = 500 ms          (1 %)
    tran: time = 11.25 s     (22.5 %), step = 500 ms          (1 %)
    tran: time = 13.75 s     (27.5 %), step = 500 ms          (1 %)
    tran: time = 16.25 s     (32.5 %), step = 500 ms          (1 %)
    tran: time = 18.75 s     (37.5 %), step = 500 ms          (1 %)
    tran: time = 21.25 s     (42.5 %), step = 500 ms          (1 %)
    tran: time = 23.75 s     (47.5 %), step = 500 ms          (1 %)
    tran: time = 26.25 s     (52.5 %), step = 500 ms          (1 %)
    tran: time = 28.75 s     (57.5 %), step = 500 ms          (1 %)
    tran: time = 31.25 s     (62.5 %), step = 500 ms          (1 %)
    tran: time = 33.75 s     (67.5 %), step = 500 ms          (1 %)
    tran: time = 36.25 s     (72.5 %), step = 500 ms          (1 %)
    tran: time = 38.75 s     (77.5 %), step = 500 ms          (1 %)
    tran: time = 41.25 s     (82.5 %), step = 500 ms          (1 %)
    tran: time = 43.75 s     (87.5 %), step = 500 ms          (1 %)
    tran: time = 46.3 s      (92.6 %), step = 104.3 ms     (209 m%)
    tran: time = 48.9 s      (97.8 %), step = 237.1 ms     (474 m%)
Number of accepted tran steps =             643

Maximum value achieved for any signal of each quantity: 
V: V(vout_filt) = 3.3 V
I: I(V8:p) = 6.478 uA

~~~~~~~~~~~~~~~~~~~~~~~~~~~~~~~~~
Post-Transient Simulation Summary
~~~~~~~~~~~~~~~~~~~~~~~~~~~~~~~~~
   -   To further speed up simulation, consider
          add ++aps on command line
   -   Non-default settings that could significantly slow down simulation
          errpreset = conservative, default moderate
          reltol = 10e-06, default 100e-06 (conservative)
~~~~~~~~~~~~~~~~~~~~~~~~~~~~~~~~~


During simulation, the CPU load for active processors is :
         0 (79.7 %)      1 (16.4 %)      2 (11.0 %)      3 (5.0 %)
         4 (5.6 %)       5 (43.2 %)      6 (12.1 %)      7 (18.6 %)
         8 (44.8 %)      9 (39.4 %)     10 (3.2 %)      11 (3.2 %)
        12 (10.8 %)     13 (4.2 %)      14 (6.6 %)      15 (3.4 %)
        16 (27.6 %)     17 (18.3 %)     18 (27.9 %)     19 (32.5 %)
        20 (31.1 %)     21 (6.6 %)      22 (76.1 %)     23 (5.6 %)
        24 (8.4 %)      25 (7.1 %)      26 (4.5 %)      27 (4.0 %)
        28 (100.0 %)    29 (79.8 %)     30 (20.7 %)     31 (3.7 %)
        32 (4.7 %)      33 (4.2 %)      34 (3.4 %)      35 (3.4 %)
        36 (4.2 %)      37 (7.2 %)      38 (58.5 %)     39 (43.2 %)
        40 (54.7 %)     41 (1.6 %)      42 (16.3 %)     43 (15.7 %)
        44 (2.1 %)      45 (3.1 %)      46 (39.2 %)     47 (31.0 %)
        Total: 1053.6%
Initial condition solution time: CPU = 2.853 ms, elapsed = 2.86293 ms.
Intrinsic tran analysis time:    CPU = 399.096 ms, elapsed = 400.7 ms.
Total time required for tran analysis `tran': CPU = 404.956 ms, elapsed = 407.186 ms, util. = 99.5%.
Time accumulated: CPU = 3.25374 s, elapsed = 3.91866 s.
Peak resident memory used = 214 Mbytes.


Notice from spectre during transient analysis `tran', during Monte Carlo analysis `mc1'.
    34 warnings suppressed.

finalTimeOP: writing operating point information to rawfile.

Opening the PSF file ../psf/mc1_separate/005/finalTimeOP.info ...
modelParameter: writing model parameter values to rawfile.

Opening the PSF file ../psf/mc1_separate/005/modelParameter.info ...
element: writing instance parameter values to rawfile.

Opening the PSF file ../psf/mc1_separate/005/element.info ...
outputParameter: writing output parameter values to rawfile.

Opening the PSF file ../psf/mc1_separate/005/outputParameter.info ...
designParamVals: writing netlist parameters to rawfile.

Opening the PSFASCII file ../psf/mc1_separate/005/designParamVals.info ...
primitives: writing primitives to rawfile.

Opening the PSFASCII file ../psf/mc1_separate/005/primitives.info.primitives ...
subckts: writing subcircuits to rawfile.

Opening the PSFASCII file ../psf/mc1_separate/005/subckts.info.subckts ...
    mc1: iteration = 5           (4.04 %), step = 1            (1.01 %)
6   5.05% 

*****************************************************************************************
* 
* INFO: AMS_processOption = C35B4C3
* 
* INFO: Valid Modules  PIP VG5 HIRES
* 
*****************************************************************************************


Notice from spectre during Monte Carlo analysis `mc1'.
    V8: `period' has the unusually large value of 100 s.


***********************************************
Transient Analysis `tran': time = (0 s -> 50 s)
***********************************************

Opening the PSF file ../psf/mc1_separate/006/tran.tran.tran ...

Warning from spectre during check, during IC analysis, during transient analysis `tran', during Monte Carlo analysis `mc1'.
    WARNING (CMI-2943): Parameter checks have been ignored because the valid value for parameter 'trise' could not be found in 'C1'.
    WARNING (CMI-2943): Parameter checks have been ignored because the valid value for parameter 'trise' could not be found in 'I0.R2.CM'.
    WARNING (CMI-2943): Parameter checks have been ignored because the valid value for parameter 'trise' could not be found in 'I0.R2.CS1'.
    WARNING (CMI-2943): Parameter checks have been ignored because the valid value for parameter 'trise' could not be found in 'I0.R2.CS0'.
    WARNING (CMI-2943): Parameter checks have been ignored because the valid value for parameter 'trise' could not be found in 'I0.C3.C1'.
        Further occurrences of this warning will be suppressed.

Convergence achieved in 12 iterations.
DC simulation time: CPU = 2.719 ms, elapsed = 2.74515 ms.
Important parameter values:
    start = 0 s
    outputstart = 0 s
    stop = 50 s
    step = 50 ms
    maxstep = 500 ms
    ic = all
    useprevic = no
    skipdc = no
    reltol = 10e-06
    abstol(V) = 1 uV
    abstol(I) = 1 pA
    temp = -40 C
    tnom = 27 C
    tempeffects = all
    errpreset = conservative
    method = gear2only
    lteratio = 10
    relref = alllocal
    cmin = 0 F
    gmin = 1 pS
    rabsshort = 1 mOhm


Notice from spectre during transient analysis `tran', during Monte Carlo analysis `mc1'.
    Multithreading is disabled due to the size of the design being too small.


Output and IC/nodeset summary:
                 save   8       (current)
                 save   87      (voltage)

    tran: time = 1.276 s     (2.55 %), step = 110.6 ms     (221 m%)
    tran: time = 3.763 s     (7.53 %), step = 288.1 ms     (576 m%)
    tran: time = 6.553 s     (13.1 %), step = 499.9 ms        (1 %)
    tran: time = 9.053 s     (18.1 %), step = 500 ms          (1 %)
    tran: time = 11.55 s     (23.1 %), step = 500 ms          (1 %)
    tran: time = 14.05 s     (28.1 %), step = 500 ms          (1 %)
    tran: time = 16.55 s     (33.1 %), step = 500 ms          (1 %)
    tran: time = 19.05 s     (38.1 %), step = 500 ms          (1 %)
    tran: time = 21.55 s     (43.1 %), step = 500 ms          (1 %)
    tran: time = 24.05 s     (48.1 %), step = 500 ms          (1 %)
    tran: time = 26.55 s     (53.1 %), step = 500 ms          (1 %)
    tran: time = 29.05 s     (58.1 %), step = 500 ms          (1 %)
    tran: time = 31.55 s     (63.1 %), step = 500 ms          (1 %)
    tran: time = 34.05 s     (68.1 %), step = 500 ms          (1 %)
    tran: time = 36.55 s     (73.1 %), step = 500 ms          (1 %)
    tran: time = 39.05 s     (78.1 %), step = 500 ms          (1 %)
    tran: time = 41.55 s     (83.1 %), step = 500 ms          (1 %)
    tran: time = 43.9 s      (87.8 %), step = 262.9 ms     (526 m%)
    tran: time = 46.32 s     (92.6 %), step = 69.37 ms     (139 m%)
    tran: time = 48.86 s     (97.7 %), step = 500 ms          (1 %)
Number of accepted tran steps =             654

Maximum value achieved for any signal of each quantity: 
V: V(vout_filt) = 3.3 V
I: I(V8:p) = 6.522 uA

~~~~~~~~~~~~~~~~~~~~~~~~~~~~~~~~~
Post-Transient Simulation Summary
~~~~~~~~~~~~~~~~~~~~~~~~~~~~~~~~~
   -   To further speed up simulation, consider
          add ++aps on command line
   -   Non-default settings that could significantly slow down simulation
          errpreset = conservative, default moderate
          reltol = 10e-06, default 100e-06 (conservative)
~~~~~~~~~~~~~~~~~~~~~~~~~~~~~~~~~


During simulation, the CPU load for active processors is :
         0 (81.3 %)      1 (22.2 %)      2 (9.8 %)       3 (6.8 %)
         4 (5.7 %)       5 (47.4 %)      6 (12.4 %)      7 (18.2 %)
         8 (40.2 %)      9 (39.1 %)     10 (5.5 %)      11 (3.1 %)
        12 (10.3 %)     13 (5.4 %)      14 (6.4 %)      15 (3.5 %)
        16 (24.7 %)     17 (16.6 %)     18 (25.6 %)     19 (29.6 %)
        20 (37.8 %)     21 (16.9 %)     22 (78.7 %)     23 (7.1 %)
        24 (11.0 %)     25 (8.0 %)      26 (5.5 %)      27 (4.2 %)
        28 (100.0 %)    29 (82.1 %)     30 (19.0 %)     31 (4.2 %)
        32 (4.4 %)      33 (4.9 %)      34 (4.0 %)      35 (3.6 %)
        36 (5.4 %)      37 (6.6 %)      38 (57.0 %)     39 (44.7 %)
        40 (58.5 %)     41 (1.9 %)      42 (15.3 %)     43 (14.8 %)
        44 (2.8 %)      45 (3.3 %)      46 (35.5 %)     47 (31.1 %)
        Total: 1082.2%
Initial condition solution time: CPU = 2.78 ms, elapsed = 2.80809 ms.
Intrinsic tran analysis time:    CPU = 403.867 ms, elapsed = 405.8 ms.
Total time required for tran analysis `tran': CPU = 409.205 ms, elapsed = 411.891 ms, util. = 99.3%.
Time accumulated: CPU = 3.70849 s, elapsed = 4.38876 s.
Peak resident memory used = 214 Mbytes.


Notice from spectre during transient analysis `tran', during Monte Carlo analysis `mc1'.
    34 warnings suppressed.

finalTimeOP: writing operating point information to rawfile.

Opening the PSF file ../psf/mc1_separate/006/finalTimeOP.info ...
modelParameter: writing model parameter values to rawfile.

Opening the PSF file ../psf/mc1_separate/006/modelParameter.info ...
element: writing instance parameter values to rawfile.

Opening the PSF file ../psf/mc1_separate/006/element.info ...
outputParameter: writing output parameter values to rawfile.

Opening the PSF file ../psf/mc1_separate/006/outputParameter.info ...
designParamVals: writing netlist parameters to rawfile.

Opening the PSFASCII file ../psf/mc1_separate/006/designParamVals.info ...
primitives: writing primitives to rawfile.

Opening the PSFASCII file ../psf/mc1_separate/006/primitives.info.primitives ...
subckts: writing subcircuits to rawfile.

Opening the PSFASCII file ../psf/mc1_separate/006/subckts.info.subckts ...
    mc1: iteration = 6           (5.05 %), step = 1            (1.01 %)
7   6.06% 

*****************************************************************************************
* 
* INFO: AMS_processOption = C35B4C3
* 
* INFO: Valid Modules  PIP VG5 HIRES
* 
*****************************************************************************************


Notice from spectre during Monte Carlo analysis `mc1'.
    V8: `period' has the unusually large value of 100 s.


***********************************************
Transient Analysis `tran': time = (0 s -> 50 s)
***********************************************

Opening the PSF file ../psf/mc1_separate/007/tran.tran.tran ...

Warning from spectre during check, during IC analysis, during transient analysis `tran', during Monte Carlo analysis `mc1'.
    WARNING (CMI-2943): Parameter checks have been ignored because the valid value for parameter 'trise' could not be found in 'C1'.
    WARNING (CMI-2943): Parameter checks have been ignored because the valid value for parameter 'trise' could not be found in 'I0.R2.CM'.
    WARNING (CMI-2943): Parameter checks have been ignored because the valid value for parameter 'trise' could not be found in 'I0.R2.CS1'.
    WARNING (CMI-2943): Parameter checks have been ignored because the valid value for parameter 'trise' could not be found in 'I0.R2.CS0'.
    WARNING (CMI-2943): Parameter checks have been ignored because the valid value for parameter 'trise' could not be found in 'I0.C3.C1'.
        Further occurrences of this warning will be suppressed.

Convergence achieved in 12 iterations.
DC simulation time: CPU = 2.537 ms, elapsed = 2.53797 ms.
Important parameter values:
    start = 0 s
    outputstart = 0 s
    stop = 50 s
    step = 50 ms
    maxstep = 500 ms
    ic = all
    useprevic = no
    skipdc = no
    reltol = 10e-06
    abstol(V) = 1 uV
    abstol(I) = 1 pA
    temp = -40 C
    tnom = 27 C
    tempeffects = all
    errpreset = conservative
    method = gear2only
    lteratio = 10
    relref = alllocal
    cmin = 0 F
    gmin = 1 pS
    rabsshort = 1 mOhm


Notice from spectre during transient analysis `tran', during Monte Carlo analysis `mc1'.
    Multithreading is disabled due to the size of the design being too small.


Output and IC/nodeset summary:
                 save   8       (current)
                 save   87      (voltage)

    tran: time = 1.265 s     (2.53 %), step = 115.5 ms     (231 m%)
    tran: time = 3.852 s      (7.7 %), step = 299.2 ms     (598 m%)
    tran: time = 6.729 s     (13.5 %), step = 500 ms          (1 %)
    tran: time = 9.229 s     (18.5 %), step = 500 ms          (1 %)
    tran: time = 11.73 s     (23.5 %), step = 500 ms          (1 %)
    tran: time = 14.23 s     (28.5 %), step = 500 ms          (1 %)
    tran: time = 16.73 s     (33.5 %), step = 500 ms          (1 %)
    tran: time = 19.23 s     (38.5 %), step = 500 ms          (1 %)
    tran: time = 21.73 s     (43.5 %), step = 500 ms          (1 %)
    tran: time = 24.23 s     (48.5 %), step = 500 ms          (1 %)
    tran: time = 26.73 s     (53.5 %), step = 500 ms          (1 %)
    tran: time = 29.23 s     (58.5 %), step = 500 ms          (1 %)
    tran: time = 31.73 s     (63.5 %), step = 500 ms          (1 %)
    tran: time = 34.23 s     (68.5 %), step = 500 ms          (1 %)
    tran: time = 36.73 s     (73.5 %), step = 500 ms          (1 %)
    tran: time = 39.23 s     (78.5 %), step = 500 ms          (1 %)
    tran: time = 41.73 s     (83.5 %), step = 500 ms          (1 %)
    tran: time = 44.13 s     (88.3 %), step = 419.9 ms     (840 m%)
    tran: time = 46.27 s     (92.5 %), step = 28.05 ms    (56.1 m%)
    tran: time = 48.82 s     (97.6 %), step = 310.8 ms     (622 m%)
Number of accepted tran steps =             650

Maximum value achieved for any signal of each quantity: 
V: V(vout_filt) = 3.3 V
I: I(V8:p) = 6.435 uA

~~~~~~~~~~~~~~~~~~~~~~~~~~~~~~~~~
Post-Transient Simulation Summary
~~~~~~~~~~~~~~~~~~~~~~~~~~~~~~~~~
   -   To further speed up simulation, consider
          add ++aps on command line
   -   Non-default settings that could significantly slow down simulation
          errpreset = conservative, default moderate
          reltol = 10e-06, default 100e-06 (conservative)
~~~~~~~~~~~~~~~~~~~~~~~~~~~~~~~~~


During simulation, the CPU load for active processors is :
         0 (73.8 %)      1 (29.8 %)      2 (18.6 %)      3 (6.4 %)
         4 (5.3 %)       5 (43.0 %)      6 (11.2 %)      7 (18.7 %)
         8 (36.6 %)      9 (35.4 %)     10 (14.9 %)     11 (2.8 %)
        12 (9.5 %)      13 (5.7 %)      14 (6.2 %)      15 (3.4 %)
        16 (22.5 %)     17 (15.2 %)     18 (23.2 %)     19 (27.2 %)
        20 (43.0 %)     21 (24.1 %)     22 (80.8 %)     23 (6.8 %)
        24 (10.7 %)     25 (7.4 %)      26 (5.4 %)      27 (4.2 %)
        28 (99.8 %)     29 (81.9 %)     30 (19.2 %)     31 (4.0 %)
        32 (4.2 %)      33 (4.7 %)      34 (4.2 %)      35 (3.6 %)
        36 (5.1 %)      37 (6.2 %)      38 (52.7 %)     39 (49.9 %)
        40 (62.3 %)     41 (1.9 %)      42 (14.0 %)     43 (13.3 %)
        44 (2.6 %)      45 (3.2 %)      46 (33.3 %)     47 (29.4 %)
        Total: 1087.8%
Initial condition solution time: CPU = 2.587 ms, elapsed = 2.58803 ms.
Intrinsic tran analysis time:    CPU = 404.753 ms, elapsed = 406.123 ms.
Total time required for tran analysis `tran': CPU = 410.017 ms, elapsed = 412.139 ms, util. = 99.5%.
Time accumulated: CPU = 4.15981 s, elapsed = 4.85426 s.
Peak resident memory used = 214 Mbytes.


Notice from spectre during transient analysis `tran', during Monte Carlo analysis `mc1'.
    34 warnings suppressed.

finalTimeOP: writing operating point information to rawfile.

Opening the PSF file ../psf/mc1_separate/007/finalTimeOP.info ...
modelParameter: writing model parameter values to rawfile.

Opening the PSF file ../psf/mc1_separate/007/modelParameter.info ...
element: writing instance parameter values to rawfile.

Opening the PSF file ../psf/mc1_separate/007/element.info ...
outputParameter: writing output parameter values to rawfile.

Opening the PSF file ../psf/mc1_separate/007/outputParameter.info ...
designParamVals: writing netlist parameters to rawfile.

Opening the PSFASCII file ../psf/mc1_separate/007/designParamVals.info ...
primitives: writing primitives to rawfile.

Opening the PSFASCII file ../psf/mc1_separate/007/primitives.info.primitives ...
subckts: writing subcircuits to rawfile.

Opening the PSFASCII file ../psf/mc1_separate/007/subckts.info.subckts ...
    mc1: iteration = 7           (6.06 %), step = 1            (1.01 %)
8   7.07% 

*****************************************************************************************
* 
* INFO: AMS_processOption = C35B4C3
* 
* INFO: Valid Modules  PIP VG5 HIRES
* 
*****************************************************************************************


Notice from spectre during Monte Carlo analysis `mc1'.
    V8: `period' has the unusually large value of 100 s.


***********************************************
Transient Analysis `tran': time = (0 s -> 50 s)
***********************************************

Opening the PSF file ../psf/mc1_separate/008/tran.tran.tran ...

Warning from spectre during check, during IC analysis, during transient analysis `tran', during Monte Carlo analysis `mc1'.
    WARNING (CMI-2943): Parameter checks have been ignored because the valid value for parameter 'trise' could not be found in 'C1'.
    WARNING (CMI-2943): Parameter checks have been ignored because the valid value for parameter 'trise' could not be found in 'I0.R2.CM'.
    WARNING (CMI-2943): Parameter checks have been ignored because the valid value for parameter 'trise' could not be found in 'I0.R2.CS1'.
    WARNING (CMI-2943): Parameter checks have been ignored because the valid value for parameter 'trise' could not be found in 'I0.R2.CS0'.
    WARNING (CMI-2943): Parameter checks have been ignored because the valid value for parameter 'trise' could not be found in 'I0.C3.C1'.
        Further occurrences of this warning will be suppressed.

Convergence achieved in 12 iterations.
DC simulation time: CPU = 2.526 ms, elapsed = 2.52604 ms.
Important parameter values:
    start = 0 s
    outputstart = 0 s
    stop = 50 s
    step = 50 ms
    maxstep = 500 ms
    ic = all
    useprevic = no
    skipdc = no
    reltol = 10e-06
    abstol(V) = 1 uV
    abstol(I) = 1 pA
    temp = -40 C
    tnom = 27 C
    tempeffects = all
    errpreset = conservative
    method = gear2only
    lteratio = 10
    relref = alllocal
    cmin = 0 F
    gmin = 1 pS
    rabsshort = 1 mOhm


Notice from spectre during transient analysis `tran', during Monte Carlo analysis `mc1'.
    Multithreading is disabled due to the size of the design being too small.


Output and IC/nodeset summary:
                 save   8       (current)
                 save   87      (voltage)

    tran: time = 1.279 s     (2.56 %), step = 120.6 ms     (241 m%)
    tran: time = 3.975 s     (7.95 %), step = 311.6 ms     (623 m%)
    tran: time = 6.45 s      (12.9 %), step = 498.2 ms     (996 m%)
    tran: time = 8.95 s      (17.9 %), step = 500 ms          (1 %)
    tran: time = 11.45 s     (22.9 %), step = 500 ms          (1 %)
    tran: time = 13.95 s     (27.9 %), step = 500 ms          (1 %)
    tran: time = 16.45 s     (32.9 %), step = 500 ms          (1 %)
    tran: time = 18.95 s     (37.9 %), step = 500 ms          (1 %)
    tran: time = 21.45 s     (42.9 %), step = 500 ms          (1 %)
    tran: time = 23.95 s     (47.9 %), step = 500 ms          (1 %)
    tran: time = 26.45 s     (52.9 %), step = 500 ms          (1 %)
    tran: time = 28.95 s     (57.9 %), step = 500 ms          (1 %)
    tran: time = 31.45 s     (62.9 %), step = 500 ms          (1 %)
    tran: time = 33.95 s     (67.9 %), step = 500 ms          (1 %)
    tran: time = 36.45 s     (72.9 %), step = 500 ms          (1 %)
    tran: time = 38.95 s     (77.9 %), step = 500 ms          (1 %)
    tran: time = 41.45 s     (82.9 %), step = 500 ms          (1 %)
    tran: time = 43.95 s     (87.9 %), step = 500 ms          (1 %)
    tran: time = 46.28 s     (92.6 %), step = 117.5 ms     (235 m%)
    tran: time = 48.87 s     (97.7 %), step = 223.7 ms     (447 m%)
Number of accepted tran steps =             648

Maximum value achieved for any signal of each quantity: 
V: V(vout_filt) = 3.3 V
I: I(V8:p) = 6.469 uA

~~~~~~~~~~~~~~~~~~~~~~~~~~~~~~~~~
Post-Transient Simulation Summary
~~~~~~~~~~~~~~~~~~~~~~~~~~~~~~~~~
   -   To further speed up simulation, consider
          add ++aps on command line
   -   Non-default settings that could significantly slow down simulation
          errpreset = conservative, default moderate
          reltol = 10e-06, default 100e-06 (conservative)
~~~~~~~~~~~~~~~~~~~~~~~~~~~~~~~~~


During simulation, the CPU load for active processors is :
         0 (68.0 %)      1 (36.2 %)      2 (25.9 %)      3 (7.7 %)
         4 (6.8 %)       5 (39.5 %)      6 (11.2 %)      7 (18.8 %)
         8 (34.1 %)      9 (33.8 %)     10 (22.7 %)     11 (2.7 %)
        12 (10.4 %)     13 (7.6 %)      14 (5.6 %)      15 (3.7 %)
        16 (21.1 %)     17 (21.7 %)     18 (21.7 %)     19 (25.5 %)
        20 (40.0 %)     21 (30.9 %)     22 (82.5 %)     23 (6.2 %)
        24 (10.9 %)     25 (7.9 %)      26 (6.5 %)      27 (4.5 %)
        28 (99.8 %)     29 (83.4 %)     30 (19.6 %)     31 (4.3 %)
        32 (5.8 %)      33 (4.8 %)      34 (5.4 %)      35 (5.6 %)
        36 (6.6 %)      37 (6.6 %)      38 (52.6 %)     39 (50.2 %)
        40 (64.3 %)     41 (1.9 %)      42 (14.3 %)     43 (12.9 %)
        44 (2.9 %)      45 (3.9 %)      46 (31.9 %)     47 (27.5 %)
        Total: 1118.5%
Initial condition solution time: CPU = 2.568 ms, elapsed = 2.56991 ms.
Intrinsic tran analysis time:    CPU = 407.082 ms, elapsed = 408.996 ms.
Total time required for tran analysis `tran': CPU = 412.263 ms, elapsed = 414.717 ms, util. = 99.4%.
Time accumulated: CPU = 4.61411 s, elapsed = 5.32208 s.
Peak resident memory used = 214 Mbytes.


Notice from spectre during transient analysis `tran', during Monte Carlo analysis `mc1'.
    34 warnings suppressed.

finalTimeOP: writing operating point information to rawfile.

Opening the PSF file ../psf/mc1_separate/008/finalTimeOP.info ...
modelParameter: writing model parameter values to rawfile.

Opening the PSF file ../psf/mc1_separate/008/modelParameter.info ...
element: writing instance parameter values to rawfile.

Opening the PSF file ../psf/mc1_separate/008/element.info ...
outputParameter: writing output parameter values to rawfile.

Opening the PSF file ../psf/mc1_separate/008/outputParameter.info ...
designParamVals: writing netlist parameters to rawfile.

Opening the PSFASCII file ../psf/mc1_separate/008/designParamVals.info ...
primitives: writing primitives to rawfile.

Opening the PSFASCII file ../psf/mc1_separate/008/primitives.info.primitives ...
subckts: writing subcircuits to rawfile.

Opening the PSFASCII file ../psf/mc1_separate/008/subckts.info.subckts ...
    mc1: iteration = 8           (7.07 %), step = 1            (1.01 %)
9   8.08% 

*****************************************************************************************
* 
* INFO: AMS_processOption = C35B4C3
* 
* INFO: Valid Modules  PIP VG5 HIRES
* 
*****************************************************************************************


Notice from spectre during Monte Carlo analysis `mc1'.
    V8: `period' has the unusually large value of 100 s.


***********************************************
Transient Analysis `tran': time = (0 s -> 50 s)
***********************************************

Opening the PSF file ../psf/mc1_separate/009/tran.tran.tran ...

Warning from spectre during check, during IC analysis, during transient analysis `tran', during Monte Carlo analysis `mc1'.
    WARNING (CMI-2943): Parameter checks have been ignored because the valid value for parameter 'trise' could not be found in 'C1'.
    WARNING (CMI-2943): Parameter checks have been ignored because the valid value for parameter 'trise' could not be found in 'I0.R2.CM'.
    WARNING (CMI-2943): Parameter checks have been ignored because the valid value for parameter 'trise' could not be found in 'I0.R2.CS1'.
    WARNING (CMI-2943): Parameter checks have been ignored because the valid value for parameter 'trise' could not be found in 'I0.R2.CS0'.
    WARNING (CMI-2943): Parameter checks have been ignored because the valid value for parameter 'trise' could not be found in 'I0.C3.C1'.
        Further occurrences of this warning will be suppressed.

Convergence achieved in 12 iterations.
DC simulation time: CPU = 2.61 ms, elapsed = 2.61211 ms.
Important parameter values:
    start = 0 s
    outputstart = 0 s
    stop = 50 s
    step = 50 ms
    maxstep = 500 ms
    ic = all
    useprevic = no
    skipdc = no
    reltol = 10e-06
    abstol(V) = 1 uV
    abstol(I) = 1 pA
    temp = -40 C
    tnom = 27 C
    tempeffects = all
    errpreset = conservative
    method = gear2only
    lteratio = 10
    relref = alllocal
    cmin = 0 F
    gmin = 1 pS
    rabsshort = 1 mOhm


Notice from spectre during transient analysis `tran', during Monte Carlo analysis `mc1'.
    Multithreading is disabled due to the size of the design being too small.


Output and IC/nodeset summary:
                 save   8       (current)
                 save   87      (voltage)

    tran: time = 1.339 s     (2.68 %), step = 137.4 ms     (275 m%)
    tran: time = 4.051 s      (8.1 %), step = 328.4 ms     (657 m%)
    tran: time = 6.632 s     (13.3 %), step = 500 ms          (1 %)
    tran: time = 9.132 s     (18.3 %), step = 500 ms          (1 %)
    tran: time = 11.63 s     (23.3 %), step = 500 ms          (1 %)
    tran: time = 14.13 s     (28.3 %), step = 500 ms          (1 %)
    tran: time = 16.63 s     (33.3 %), step = 500 ms          (1 %)
    tran: time = 19.13 s     (38.3 %), step = 500 ms          (1 %)
    tran: time = 21.63 s     (43.3 %), step = 500 ms          (1 %)
    tran: time = 24.13 s     (48.3 %), step = 500 ms          (1 %)
    tran: time = 26.63 s     (53.3 %), step = 500 ms          (1 %)
    tran: time = 29.13 s     (58.3 %), step = 500 ms          (1 %)
    tran: time = 31.63 s     (63.3 %), step = 500 ms          (1 %)
    tran: time = 34.13 s     (68.3 %), step = 500 ms          (1 %)
    tran: time = 36.63 s     (73.3 %), step = 500 ms          (1 %)
    tran: time = 39.13 s     (78.3 %), step = 500 ms          (1 %)
    tran: time = 41.63 s     (83.3 %), step = 500 ms          (1 %)
    tran: time = 44.13 s     (88.3 %), step = 500 ms          (1 %)
    tran: time = 46.37 s     (92.7 %), step = 352.9 ms     (706 m%)
    tran: time = 48.77 s     (97.5 %), step = 36.84 ms    (73.7 m%)
Number of accepted tran steps =             644

Maximum value achieved for any signal of each quantity: 
V: V(vout_filt) = 3.3 V
I: I(V8:p) = 6.279 uA

~~~~~~~~~~~~~~~~~~~~~~~~~~~~~~~~~
Post-Transient Simulation Summary
~~~~~~~~~~~~~~~~~~~~~~~~~~~~~~~~~
   -   To further speed up simulation, consider
          add ++aps on command line
   -   Non-default settings that could significantly slow down simulation
          errpreset = conservative, default moderate
          reltol = 10e-06, default 100e-06 (conservative)
~~~~~~~~~~~~~~~~~~~~~~~~~~~~~~~~~


During simulation, the CPU load for active processors is :
         0 (69.9 %)      1 (41.3 %)      2 (25.0 %)      3 (12.8 %)
         4 (6.5 %)       5 (37.3 %)      6 (10.5 %)      7 (18.2 %)
         8 (32.0 %)      9 (37.2 %)     10 (29.0 %)     11 (4.3 %)
        12 (10.1 %)     13 (12.6 %)     14 (5.4 %)      15 (3.7 %)
        16 (19.8 %)     17 (22.4 %)     18 (21.1 %)     19 (25.0 %)
        20 (44.5 %)     21 (33.9 %)     22 (83.3 %)     23 (6.4 %)
        24 (10.6 %)     25 (8.2 %)      26 (11.3 %)     27 (4.6 %)
        28 (99.8 %)     29 (83.9 %)     30 (22.1 %)     31 (4.8 %)
        32 (6.2 %)      33 (4.6 %)      34 (10.5 %)     35 (10.4 %)
        36 (11.0 %)     37 (7.0 %)      38 (52.9 %)     39 (46.5 %)
        40 (60.1 %)     41 (5.0 %)      42 (21.3 %)     43 (11.9 %)
        44 (2.9 %)      45 (4.1 %)      46 (32.9 %)     47 (25.8 %)
        Total: 1170.6%
Initial condition solution time: CPU = 2.654 ms, elapsed = 2.65598 ms.
Intrinsic tran analysis time:    CPU = 401.86 ms, elapsed = 403.669 ms.
Total time required for tran analysis `tran': CPU = 407.464 ms, elapsed = 410.008 ms, util. = 99.4%.
Time accumulated: CPU = 5.06667 s, elapsed = 5.78829 s.
Peak resident memory used = 214 Mbytes.


Notice from spectre during transient analysis `tran', during Monte Carlo analysis `mc1'.
    34 warnings suppressed.

finalTimeOP: writing operating point information to rawfile.

Opening the PSF file ../psf/mc1_separate/009/finalTimeOP.info ...
modelParameter: writing model parameter values to rawfile.

Opening the PSF file ../psf/mc1_separate/009/modelParameter.info ...
element: writing instance parameter values to rawfile.

Opening the PSF file ../psf/mc1_separate/009/element.info ...
outputParameter: writing output parameter values to rawfile.

Opening the PSF file ../psf/mc1_separate/009/outputParameter.info ...
designParamVals: writing netlist parameters to rawfile.

Opening the PSFASCII file ../psf/mc1_separate/009/designParamVals.info ...
primitives: writing primitives to rawfile.

Opening the PSFASCII file ../psf/mc1_separate/009/primitives.info.primitives ...
subckts: writing subcircuits to rawfile.

Opening the PSFASCII file ../psf/mc1_separate/009/subckts.info.subckts ...
    mc1: iteration = 9           (8.08 %), step = 1            (1.01 %)
10   9.09% 

*****************************************************************************************
* 
* INFO: AMS_processOption = C35B4C3
* 
* INFO: Valid Modules  PIP VG5 HIRES
* 
*****************************************************************************************


Notice from spectre during Monte Carlo analysis `mc1'.
    V8: `period' has the unusually large value of 100 s.


***********************************************
Transient Analysis `tran': time = (0 s -> 50 s)
***********************************************

Opening the PSF file ../psf/mc1_separate/010/tran.tran.tran ...

Warning from spectre during check, during IC analysis, during transient analysis `tran', during Monte Carlo analysis `mc1'.
    WARNING (CMI-2943): Parameter checks have been ignored because the valid value for parameter 'trise' could not be found in 'C1'.
    WARNING (CMI-2943): Parameter checks have been ignored because the valid value for parameter 'trise' could not be found in 'I0.R2.CM'.
    WARNING (CMI-2943): Parameter checks have been ignored because the valid value for parameter 'trise' could not be found in 'I0.R2.CS1'.
    WARNING (CMI-2943): Parameter checks have been ignored because the valid value for parameter 'trise' could not be found in 'I0.R2.CS0'.
    WARNING (CMI-2943): Parameter checks have been ignored because the valid value for parameter 'trise' could not be found in 'I0.C3.C1'.
        Further occurrences of this warning will be suppressed.

Convergence achieved in 12 iterations.
DC simulation time: CPU = 2.555 ms, elapsed = 2.55609 ms.
Important parameter values:
    start = 0 s
    outputstart = 0 s
    stop = 50 s
    step = 50 ms
    maxstep = 500 ms
    ic = all
    useprevic = no
    skipdc = no
    reltol = 10e-06
    abstol(V) = 1 uV
    abstol(I) = 1 pA
    temp = -40 C
    tnom = 27 C
    tempeffects = all
    errpreset = conservative
    method = gear2only
    lteratio = 10
    relref = alllocal
    cmin = 0 F
    gmin = 1 pS
    rabsshort = 1 mOhm


Notice from spectre during transient analysis `tran', during Monte Carlo analysis `mc1'.
    Multithreading is disabled due to the size of the design being too small.


Output and IC/nodeset summary:
                 save   8       (current)
                 save   87      (voltage)

    tran: time = 1.341 s     (2.68 %), step = 111.8 ms     (224 m%)
    tran: time = 3.866 s     (7.73 %), step = 293.4 ms     (587 m%)
    tran: time = 6.703 s     (13.4 %), step = 500 ms          (1 %)
    tran: time = 9.203 s     (18.4 %), step = 500 ms          (1 %)
    tran: time = 11.7 s      (23.4 %), step = 500 ms          (1 %)
    tran: time = 14.2 s      (28.4 %), step = 500 ms          (1 %)
    tran: time = 16.7 s      (33.4 %), step = 500 ms          (1 %)
    tran: time = 19.2 s      (38.4 %), step = 500 ms          (1 %)
    tran: time = 21.7 s      (43.4 %), step = 500 ms          (1 %)
    tran: time = 24.2 s      (48.4 %), step = 500 ms          (1 %)
    tran: time = 26.7 s      (53.4 %), step = 500 ms          (1 %)
    tran: time = 29.2 s      (58.4 %), step = 500 ms          (1 %)
[...]


***********************************************
Transient Analysis `tran': time = (0 s -> 50 s)
***********************************************

Opening the PSF file ../psf/mc1_separate/098/tran.tran.tran ...

Warning from spectre during check, during IC analysis, during transient analysis `tran', during Monte Carlo analysis `mc1'.
    WARNING (CMI-2943): Parameter checks have been ignored because the valid value for parameter 'trise' could not be found in 'C1'.
    WARNING (CMI-2943): Parameter checks have been ignored because the valid value for parameter 'trise' could not be found in 'I0.R2.CM'.
    WARNING (CMI-2943): Parameter checks have been ignored because the valid value for parameter 'trise' could not be found in 'I0.R2.CS1'.
    WARNING (CMI-2943): Parameter checks have been ignored because the valid value for parameter 'trise' could not be found in 'I0.R2.CS0'.
    WARNING (CMI-2943): Parameter checks have been ignored because the valid value for parameter 'trise' could not be found in 'I0.C3.C1'.
        Further occurrences of this warning will be suppressed.

Convergence achieved in 12 iterations.
DC simulation time: CPU = 2.416 ms, elapsed = 2.41613 ms.
Important parameter values:
    start = 0 s
    outputstart = 0 s
    stop = 50 s
    step = 50 ms
    maxstep = 500 ms
    ic = all
    useprevic = no
    skipdc = no
    reltol = 10e-06
    abstol(V) = 1 uV
    abstol(I) = 1 pA
    temp = -40 C
    tnom = 27 C
    tempeffects = all
    errpreset = conservative
    method = gear2only
    lteratio = 10
    relref = alllocal
    cmin = 0 F
    gmin = 1 pS
    rabsshort = 1 mOhm


Notice from spectre during transient analysis `tran', during Monte Carlo analysis `mc1'.
    Multithreading is disabled due to the size of the design being too small.


Output and IC/nodeset summary:
                 save   8       (current)
                 save   87      (voltage)

    tran: time = 1.312 s     (2.62 %), step = 117.8 ms     (236 m%)
    tran: time = 3.956 s     (7.91 %), step = 306.1 ms     (612 m%)
    tran: time = 6.389 s     (12.8 %), step = 490 ms       (980 m%)
    tran: time = 8.889 s     (17.8 %), step = 500 ms          (1 %)
    tran: time = 11.39 s     (22.8 %), step = 500 ms          (1 %)
    tran: time = 13.89 s     (27.8 %), step = 500 ms          (1 %)
    tran: time = 16.39 s     (32.8 %), step = 500 ms          (1 %)
    tran: time = 18.89 s     (37.8 %), step = 500 ms          (1 %)
    tran: time = 21.39 s     (42.8 %), step = 500 ms          (1 %)
    tran: time = 23.89 s     (47.8 %), step = 500 ms          (1 %)
    tran: time = 26.39 s     (52.8 %), step = 500 ms          (1 %)
    tran: time = 28.89 s     (57.8 %), step = 500 ms          (1 %)
    tran: time = 31.39 s     (62.8 %), step = 500 ms          (1 %)
    tran: time = 33.89 s     (67.8 %), step = 500 ms          (1 %)
    tran: time = 36.39 s     (72.8 %), step = 500 ms          (1 %)
    tran: time = 38.89 s     (77.8 %), step = 500 ms          (1 %)
    tran: time = 41.39 s     (82.8 %), step = 500 ms          (1 %)
    tran: time = 43.82 s     (87.6 %), step = 439 ms       (878 m%)
    tran: time = 46.25 s     (92.5 %), step = 4.401 ms     (8.8 m%)
    tran: time = 49.02 s       (98 %), step = 391.9 ms     (784 m%)
Number of accepted tran steps =             649

Maximum value achieved for any signal of each quantity: 
V: V(vout_filt) = 3.3 V
I: I(V8:p) = 6.313 uA

~~~~~~~~~~~~~~~~~~~~~~~~~~~~~~~~~
Post-Transient Simulation Summary
~~~~~~~~~~~~~~~~~~~~~~~~~~~~~~~~~
   -   To further speed up simulation, consider
          add ++aps on command line
   -   Non-default settings that could significantly slow down simulation
          errpreset = conservative, default moderate
          reltol = 10e-06, default 100e-06 (conservative)
~~~~~~~~~~~~~~~~~~~~~~~~~~~~~~~~~


During simulation, the CPU load for active processors is :
         0 (39.8 %)      1 (30.2 %)      2 (89.0 %)      3 (23.7 %)
         4 (8.2 %)       5 (36.9 %)      6 (8.5 %)       7 (5.3 %)
         8 (9.3 %)       9 (53.5 %)     10 (17.3 %)     11 (8.7 %)
        12 (23.5 %)     13 (28.8 %)     14 (29.5 %)     15 (22.3 %)
        16 (14.2 %)     17 (44.9 %)     18 (26.4 %)     19 (31.7 %)
        20 (30.5 %)     21 (33.1 %)     22 (62.6 %)     23 (32.8 %)
        24 (30.8 %)     25 (13.2 %)     26 (8.8 %)      27 (7.3 %)
        28 (69.3 %)     29 (47.5 %)     30 (10.1 %)     31 (18.6 %)
        32 (20.7 %)     33 (7.8 %)      34 (11.8 %)     35 (11.2 %)
        36 (26.2 %)     37 (13.0 %)     38 (15.5 %)     39 (31.6 %)
        40 (33.6 %)     41 (22.5 %)     42 (20.0 %)     43 (21.1 %)
        44 (23.7 %)     45 (31.6 %)     46 (26.9 %)     47 (27.6 %)
        Total: 1261.1%
Initial condition solution time: CPU = 2.457 ms, elapsed = 2.45905 ms.
Intrinsic tran analysis time:    CPU = 391.85 ms, elapsed = 393.594 ms.
Total time required for tran analysis `tran': CPU = 396.88 ms, elapsed = 399.334 ms, util. = 99.4%.
Time accumulated: CPU = 45.262 s, elapsed = 47.2409 s.
Peak resident memory used = 215 Mbytes.


Notice from spectre during transient analysis `tran', during Monte Carlo analysis `mc1'.
    34 warnings suppressed.

finalTimeOP: writing operating point information to rawfile.

Opening the PSF file ../psf/mc1_separate/098/finalTimeOP.info ...
modelParameter: writing model parameter values to rawfile.

Opening the PSF file ../psf/mc1_separate/098/modelParameter.info ...
element: writing instance parameter values to rawfile.

Opening the PSF file ../psf/mc1_separate/098/element.info ...
outputParameter: writing output parameter values to rawfile.

Opening the PSF file ../psf/mc1_separate/098/outputParameter.info ...
designParamVals: writing netlist parameters to rawfile.

Opening the PSFASCII file ../psf/mc1_separate/098/designParamVals.info ...
primitives: writing primitives to rawfile.

Opening the PSFASCII file ../psf/mc1_separate/098/primitives.info.primitives ...
subckts: writing subcircuits to rawfile.

Opening the PSFASCII file ../psf/mc1_separate/098/subckts.info.subckts ...
    mc1: iteration = 98            (98 %), step = 1            (1.01 %)
99  98.99% 

*****************************************************************************************
* 
* INFO: AMS_processOption = C35B4C3
* 
* INFO: Valid Modules  PIP VG5 HIRES
* 
*****************************************************************************************


Notice from spectre during Monte Carlo analysis `mc1'.
    V8: `period' has the unusually large value of 100 s.


***********************************************
Transient Analysis `tran': time = (0 s -> 50 s)
***********************************************

Opening the PSF file ../psf/mc1_separate/099/tran.tran.tran ...

Warning from spectre during check, during IC analysis, during transient analysis `tran', during Monte Carlo analysis `mc1'.
    WARNING (CMI-2943): Parameter checks have been ignored because the valid value for parameter 'trise' could not be found in 'C1'.
    WARNING (CMI-2943): Parameter checks have been ignored because the valid value for parameter 'trise' could not be found in 'I0.R2.CM'.
    WARNING (CMI-2943): Parameter checks have been ignored because the valid value for parameter 'trise' could not be found in 'I0.R2.CS1'.
    WARNING (CMI-2943): Parameter checks have been ignored because the valid value for parameter 'trise' could not be found in 'I0.R2.CS0'.
    WARNING (CMI-2943): Parameter checks have been ignored because the valid value for parameter 'trise' could not be found in 'I0.C3.C1'.
        Further occurrences of this warning will be suppressed.

Convergence achieved in 12 iterations.
DC simulation time: CPU = 2.641 ms, elapsed = 2.64215 ms.
Important parameter values:
    start = 0 s
    outputstart = 0 s
    stop = 50 s
    step = 50 ms
    maxstep = 500 ms
    ic = all
    useprevic = no
    skipdc = no
    reltol = 10e-06
    abstol(V) = 1 uV
    abstol(I) = 1 pA
    temp = -40 C
    tnom = 27 C
    tempeffects = all
    errpreset = conservative
    method = gear2only
    lteratio = 10
    relref = alllocal
    cmin = 0 F
    gmin = 1 pS
    rabsshort = 1 mOhm


Notice from spectre during transient analysis `tran', during Monte Carlo analysis `mc1'.
    Multithreading is disabled due to the size of the design being too small.


Output and IC/nodeset summary:
                 save   8       (current)
                 save   87      (voltage)

    tran: time = 1.285 s     (2.57 %), step = 111.9 ms     (224 m%)
    tran: time = 3.799 s      (7.6 %), step = 291.3 ms     (583 m%)
    tran: time = 6.615 s     (13.2 %), step = 500 ms          (1 %)
    tran: time = 9.115 s     (18.2 %), step = 500 ms          (1 %)
    tran: time = 11.62 s     (23.2 %), step = 500 ms          (1 %)
    tran: time = 14.12 s     (28.2 %), step = 500 ms          (1 %)
    tran: time = 16.62 s     (33.2 %), step = 500 ms          (1 %)
    tran: time = 19.12 s     (38.2 %), step = 500 ms          (1 %)
    tran: time = 21.62 s     (43.2 %), step = 500 ms          (1 %)
    tran: time = 24.12 s     (48.2 %), step = 500 ms          (1 %)
    tran: time = 26.62 s     (53.2 %), step = 500 ms          (1 %)
    tran: time = 29.12 s     (58.2 %), step = 500 ms          (1 %)
    tran: time = 31.62 s     (63.2 %), step = 500 ms          (1 %)
    tran: time = 34.12 s     (68.2 %), step = 500 ms          (1 %)
    tran: time = 36.62 s     (73.2 %), step = 500 ms          (1 %)
    tran: time = 39.12 s     (78.2 %), step = 500 ms          (1 %)
    tran: time = 41.62 s     (83.2 %), step = 500 ms          (1 %)
    tran: time = 44.01 s       (88 %), step = 270.9 ms     (542 m%)
    tran: time = 46.25 s     (92.5 %), step = 49.61 ms    (99.2 m%)
    tran: time = 49.17 s     (98.3 %), step = 500 ms          (1 %)
Number of accepted tran steps =             648

Maximum value achieved for any signal of each quantity: 
V: V(vout_filt) = 3.3 V
I: I(V8:p) = 6.268 uA

~~~~~~~~~~~~~~~~~~~~~~~~~~~~~~~~~
Post-Transient Simulation Summary
~~~~~~~~~~~~~~~~~~~~~~~~~~~~~~~~~
   -   To further speed up simulation, consider
          add ++aps on command line
   -   Non-default settings that could significantly slow down simulation
          errpreset = conservative, default moderate
          reltol = 10e-06, default 100e-06 (conservative)
~~~~~~~~~~~~~~~~~~~~~~~~~~~~~~~~~


During simulation, the CPU load for active processors is :
         0 (40.3 %)      1 (29.9 %)      2 (89.1 %)      3 (23.6 %)
         4 (8.2 %)       5 (36.5 %)      6 (8.5 %)       7 (5.3 %)
         8 (9.3 %)       9 (53.9 %)     10 (17.1 %)     11 (8.8 %)
        12 (23.4 %)     13 (28.5 %)     14 (29.2 %)     15 (22.5 %)
        16 (14.4 %)     17 (44.9 %)     18 (26.6 %)     19 (31.5 %)
        20 (31.2 %)     21 (32.8 %)     22 (62.1 %)     23 (32.5 %)
        24 (30.6 %)     25 (14.0 %)     26 (9.0 %)      27 (7.4 %)
        28 (68.7 %)     29 (48.0 %)     30 (10.0 %)     31 (18.4 %)
        32 (20.6 %)     33 (7.8 %)      34 (11.7 %)     35 (11.2 %)
        36 (26.9 %)     37 (12.9 %)     38 (15.4 %)     39 (31.3 %)
        40 (33.3 %)     41 (22.3 %)     42 (20.5 %)     43 (20.9 %)
        44 (24.5 %)     45 (31.3 %)     46 (26.7 %)     47 (27.3 %)
        Total: 1260.6%
Initial condition solution time: CPU = 2.687 ms, elapsed = 2.68888 ms.
Intrinsic tran analysis time:    CPU = 400.226 ms, elapsed = 401.924 ms.
Total time required for tran analysis `tran': CPU = 405.91 ms, elapsed = 408.278 ms, util. = 99.4%.
Time accumulated: CPU = 45.7096 s, elapsed = 47.7022 s.
Peak resident memory used = 215 Mbytes.


Notice from spectre during transient analysis `tran', during Monte Carlo analysis `mc1'.
    34 warnings suppressed.

finalTimeOP: writing operating point information to rawfile.

Opening the PSF file ../psf/mc1_separate/099/finalTimeOP.info ...
modelParameter: writing model parameter values to rawfile.

Opening the PSF file ../psf/mc1_separate/099/modelParameter.info ...
element: writing instance parameter values to rawfile.

Opening the PSF file ../psf/mc1_separate/099/element.info ...
outputParameter: writing output parameter values to rawfile.

Opening the PSF file ../psf/mc1_separate/099/outputParameter.info ...
designParamVals: writing netlist parameters to rawfile.

Opening the PSFASCII file ../psf/mc1_separate/099/designParamVals.info ...
primitives: writing primitives to rawfile.

Opening the PSFASCII file ../psf/mc1_separate/099/primitives.info.primitives ...
subckts: writing subcircuits to rawfile.

Opening the PSFASCII file ../psf/mc1_separate/099/subckts.info.subckts ...
    mc1: iteration = 99            (99 %), step = 1            (1.01 %)
100 100.00% 

*****************************************************************************************
* 
* INFO: AMS_processOption = C35B4C3
* 
* INFO: Valid Modules  PIP VG5 HIRES
* 
*****************************************************************************************


Notice from spectre during Monte Carlo analysis `mc1'.
    V8: `period' has the unusually large value of 100 s.


***********************************************
Transient Analysis `tran': time = (0 s -> 50 s)
***********************************************

Opening the PSF file ../psf/mc1_separate/100/tran.tran.tran ...

Warning from spectre during check, during IC analysis, during transient analysis `tran', during Monte Carlo analysis `mc1'.
    WARNING (CMI-2943): Parameter checks have been ignored because the valid value for parameter 'trise' could not be found in 'C1'.
    WARNING (CMI-2943): Parameter checks have been ignored because the valid value for parameter 'trise' could not be found in 'I0.R2.CM'.
    WARNING (CMI-2943): Parameter checks have been ignored because the valid value for parameter 'trise' could not be found in 'I0.R2.CS1'.
    WARNING (CMI-2943): Parameter checks have been ignored because the valid value for parameter 'trise' could not be found in 'I0.R2.CS0'.
    WARNING (CMI-2943): Parameter checks have been ignored because the valid value for parameter 'trise' could not be found in 'I0.C3.C1'.
        Further occurrences of this warning will be suppressed.

Convergence achieved in 12 iterations.
DC simulation time: CPU = 2.555 ms, elapsed = 2.55489 ms.
Important parameter values:
    start = 0 s
    outputstart = 0 s
    stop = 50 s
    step = 50 ms
    maxstep = 500 ms
    ic = all
    useprevic = no
    skipdc = no
    reltol = 10e-06
    abstol(V) = 1 uV
    abstol(I) = 1 pA
    temp = -40 C
    tnom = 27 C
    tempeffects = all
    errpreset = conservative
    method = gear2only
    lteratio = 10
    relref = alllocal
    cmin = 0 F
    gmin = 1 pS
    rabsshort = 1 mOhm


Notice from spectre during transient analysis `tran', during Monte Carlo analysis `mc1'.
    Multithreading is disabled due to the size of the design being too small.


Output and IC/nodeset summary:
                 save   8       (current)
                 save   87      (voltage)

    tran: time = 1.265 s     (2.53 %), step = 111.3 ms     (223 m%)
    tran: time = 3.763 s     (7.53 %), step = 289.2 ms     (578 m%)
    tran: time = 6.562 s     (13.1 %), step = 500 ms          (1 %)
    tran: time = 9.062 s     (18.1 %), step = 500 ms          (1 %)
    tran: time = 11.56 s     (23.1 %), step = 500 ms          (1 %)
    tran: time = 14.06 s     (28.1 %), step = 500 ms          (1 %)
    tran: time = 16.56 s     (33.1 %), step = 500 ms          (1 %)
    tran: time = 19.06 s     (38.1 %), step = 500 ms          (1 %)
    tran: time = 21.56 s     (43.1 %), step = 500 ms          (1 %)
    tran: time = 24.06 s     (48.1 %), step = 500 ms          (1 %)
    tran: time = 26.56 s     (53.1 %), step = 500 ms          (1 %)
    tran: time = 29.06 s     (58.1 %), step = 500 ms          (1 %)
    tran: time = 31.56 s     (63.1 %), step = 500 ms          (1 %)
    tran: time = 34.06 s     (68.1 %), step = 500 ms          (1 %)
    tran: time = 36.56 s     (73.1 %), step = 500 ms          (1 %)
    tran: time = 39.06 s     (78.1 %), step = 500 ms          (1 %)
    tran: time = 41.56 s     (83.1 %), step = 500 ms          (1 %)
    tran: time = 43.81 s     (87.6 %), step = 357.2 ms     (714 m%)
    tran: time = 46.27 s     (92.5 %), step = 42.07 ms    (84.1 m%)
    tran: time = 48.93 s     (97.9 %), step = 479.4 ms     (959 m%)
Number of accepted tran steps =             650

Maximum value achieved for any signal of each quantity: 
V: V(vout_filt) = 3.3 V
I: I(V8:p) = 6.647 uA

~~~~~~~~~~~~~~~~~~~~~~~~~~~~~~~~~
Post-Transient Simulation Summary
~~~~~~~~~~~~~~~~~~~~~~~~~~~~~~~~~
   -   To further speed up simulation, consider
          add ++aps on command line
   -   Non-default settings that could significantly slow down simulation
          errpreset = conservative, default moderate
          reltol = 10e-06, default 100e-06 (conservative)
~~~~~~~~~~~~~~~~~~~~~~~~~~~~~~~~~


During simulation, the CPU load for active processors is :
         0 (39.9 %)      1 (29.7 %)      2 (89.2 %)      3 (23.4 %)
         4 (8.1 %)       5 (37.1 %)      6 (8.4 %)       7 (5.2 %)
         8 (9.2 %)       9 (54.3 %)     10 (17.0 %)     11 (8.7 %)
        12 (23.2 %)     13 (28.3 %)     14 (29.0 %)     15 (23.2 %)
        16 (14.4 %)     17 (44.5 %)     18 (27.3 %)     19 (31.5 %)
        20 (31.5 %)     21 (32.9 %)     22 (61.5 %)     23 (32.2 %)
        24 (30.9 %)     25 (14.7 %)     26 (9.1 %)      27 (8.2 %)
        28 (68.2 %)     29 (48.5 %)     30 (10.1 %)     31 (18.3 %)
        32 (20.4 %)     33 (7.7 %)      34 (11.7 %)     35 (11.1 %)
        36 (27.5 %)     37 (12.9 %)     38 (15.3 %)     39 (31.0 %)
        40 (33.0 %)     41 (22.1 %)     42 (21.3 %)     43 (20.7 %)
        44 (25.2 %)     45 (31.0 %)     46 (26.5 %)     47 (27.1 %)
        Total: 1262.3%
Initial condition solution time: CPU = 2.598 ms, elapsed = 2.599 ms.
Intrinsic tran analysis time:    CPU = 406.877 ms, elapsed = 408.722 ms.
Total time required for tran analysis `tran': CPU = 412.144 ms, elapsed = 414.625 ms, util. = 99.4%.
Time accumulated: CPU = 46.1648 s, elapsed = 48.1718 s.
Peak resident memory used = 215 Mbytes.


Notice from spectre during transient analysis `tran', during Monte Carlo analysis `mc1'.
    34 warnings suppressed.

finalTimeOP: writing operating point information to rawfile.

Opening the PSF file ../psf/mc1_separate/100/finalTimeOP.info ...
modelParameter: writing model parameter values to rawfile.

Opening the PSF file ../psf/mc1_separate/100/modelParameter.info ...
element: writing instance parameter values to rawfile.

Opening the PSF file ../psf/mc1_separate/100/element.info ...
outputParameter: writing output parameter values to rawfile.

Opening the PSF file ../psf/mc1_separate/100/outputParameter.info ...
designParamVals: writing netlist parameters to rawfile.

Opening the PSFASCII file ../psf/mc1_separate/100/designParamVals.info ...
primitives: writing primitives to rawfile.

Opening the PSFASCII file ../psf/mc1_separate/100/primitives.info.primitives ...
subckts: writing subcircuits to rawfile.

Opening the PSFASCII file ../psf/mc1_separate/100/subckts.info.subckts ...
    mc1: iteration = 100          (100 %), step = 1            (1.01 %)
Total time required for montecarlo analysis `mc1': CPU = 45.7313 s, elapsed = 47.1683 s, util. = 97%.
Time accumulated: CPU = 46.1932 s, elapsed = 48.2129 s.
Peak resident memory used = 215 Mbytes.

Licensing Information:
Lic Summary:
[16:50:51.519258] Cdslmd servers:3000@lic08.ug.kth.se:29000@lic06.ug.kth.se
[16:50:51.519304] Feature usage summary:
[16:50:51.519305] Virtuoso_Multi_mode_Simulation


Aggregate audit (4:50:51 PM, Wed Apr 15, 2026):
Time used: CPU = 46.2 s, elapsed = 48.2 s, util. = 95.8%.
Time spent in licensing: elapsed = 53.1 ms.
Peak memory used = 215 Mbytes.
Simulation started at: 4:50:03 PM, Wed Apr 15, 2026, ended at: 4:50:51 PM, Wed Apr 15, 2026, with elapsed time (wall clock): 48.2 s.
spectre completes with 0 errors, 522 warnings, and 310 notices.
