
Spectre (R) Circuit Simulator
Version 24.1.0.288.isr5 64bit -- 3 Apr 2025
Copyright (C) 1989-2025 Cadence Design Systems, Inc. All rights reserved worldwide. Cadence and Spectre are registered trademarks of Cadence Design Systems, Inc. All others are the property of their respective holders.

Includes RSA BSAFE(R) Cryptographic or Security Protocol Software from RSA Security, Inc.

User: davidevi   Host: il2244vt26_davidevi   HostID: 11AC2C00   PID: 1021987
Memory  available: 3.0306 TB  physical: 3.2467 TB
Linux   : Rocky Linux release 8.10 (Green Obsidian)
CPU Type: Intel(R) Xeon(R) CPU E7-8857 v2 @ 3.00GHz
        Socket: Processors [Frequency]
        0:       0 [2999.9],  1 [2999.9],  2 [2999.9],  3 [1200.0],  4 [1200.0]
                 5 [1200.0],  6 [1200.0],  7 [1200.0],  8 [1200.0],  9 [1200.0]
                10 [1200.0], 11 [1200.0]
        1:      12 [1200.0], 13 [3600.0], 14 [1200.0], 15 [1200.0], 16 [1200.0]
                17 [1200.0], 18 [3600.0], 19 [3391.8], 20 [1200.0], 21 [3200.0]
                22 [3392.7], 23 [3391.9]
        2:      24 [2500.0], 25 [3600.0], 26 [2600.0], 27 [3600.0], 28 [2999.9]
                29 [1200.0], 30 [1200.0], 31 [2600.0], 32 [1200.0], 33 [2999.9]
                34 [3600.0], 35 [2500.0]
        3:      36 [1200.0], 37 [2999.9], 38 [1900.0], 39 [1200.0], 40 [2999.9]
                41 [2400.0], 42 [1200.0], 43 [3600.0], 44 [3600.0], 45 [1200.0]
                46 [1200.0], 47 [3600.0]
        
System load averages (1min, 5min, 15min) : 25.5 %, 22.7 %, 24.1 %
HPC is enabled


Simulating `input.scs' on il2244vt26_davidevi at 4:48:05 PM, Wed Apr 15, 2026 (process id: 1021987).
Current working directory: /home/davidevi/Desktop/myproject/Sim/VGA/VGA_1_wakeup_tb/adexl/results/data/MonteCarlo.0/7/wakeup/groupRunDataDir/netlist
Command line:
    /opt/tools/cadence/installs/SPECTRE241/tools/bin/spectre -64  \
        input.scs +escchars +log ../psf/spectre.out -format psfbin  \
        +rtsf -raw ../psf +aps +mt +lqtimeout 900 -maxw 5 -maxn 5  \
        +param /opt/pdk/ams/410/spectre/ams_range.lmts -env ade  \
        -ahdllibdir  \
        /home/davidevi/Desktop/myproject/Sim/VGA/VGA_1_wakeup_tb/adexl/results/data/MonteCarlo.0/sharedData/Job459/ahdl/input.ahdlSimDB  \
        +logstatus  \
        +adespetkn=0001089D13A302B663E41FB550AF0DF415A679A322D5069144BF588C12F604E07EF416DC01A319B562BB63D365EE23A745A36FE336DE3EB661CC62C211F64F925DF979D15D9175FF34986BDD0AF002BA50FD7FD707E002A700AC1C841EFF40E20EA979D120F874D3349879D118F874D33498100ED9BCB5975D47000036A9

Simulation Id: WtdCCfUTJe2Orria
Licensing Information:
[16:48:05.121794] Configured Lic search path (24.01-s002): 3000@lic08.ug.kth.se:29000@lic06.ug.kth.se

Licensing Information:
[16:48:05.079787] Periodic Lic check successful

Loading /opt/tools/cadence/installs/SPECTRE241/tools.lnx86/cmi/lib/64bit/5.0/libinfineon_sh.so ...
Loading /opt/tools/cadence/installs/SPECTRE241/tools.lnx86/cmi/lib/64bit/5.0/libphilips_I_sh.so ...
Loading /opt/tools/cadence/installs/SPECTRE241/tools.lnx86/cmi/lib/64bit/5.0/libphilips_sh.so ...
Loading /opt/tools/cadence/installs/SPECTRE241/tools.lnx86/cmi/lib/64bit/5.0/libsparam_sh.so ...
Loading /opt/tools/cadence/installs/SPECTRE241/tools.lnx86/cmi/lib/64bit/5.0/libstmodels_sh.so ...

Warning from spectre.
    WARNING (SPECTRE-691): This CPU processor does not support x86 advanced vector extensions instructions. This may affect math operations and slow down the simulation.

Reading file:  /home/davidevi/Desktop/myproject/Sim/VGA/VGA_1_wakeup_tb/adexl/results/data/MonteCarlo.0/7/wakeup/groupRunDataDir/netlist/input.scs
Reading file:  /opt/pdk/ams/410/spectre/ams_range.lmts

Warning from spectre during read of parameter soft limits file `/opt/pdk/ams/410/spectre/ams_range.lmts', during circuit read-in.
    WARNING (SPECTRE-8360): line 1511: `ac' is an undefined primitive device.
    WARNING (SPECTRE-8360): line 1512: `ac' is an undefined primitive device.
    WARNING (SPECTRE-8360): line 1513: `ac' is an undefined primitive device.
    WARNING (SPECTRE-8360): line 1514: `ac' is an undefined primitive device.
    WARNING (SPECTRE-8360): line 1515: `ac' is an undefined primitive device.
        Further occurrences of this warning will be suppressed.

Reading file:  /opt/tools/cadence/installs/SPECTRE241/tools.lnx86/spectre/etc/configs/spectre.cfg
Reading file:  /opt/pdk/ams/410/spectre/c35/soac/soac.scs
Reading file:  /opt/pdk/ams/410/spectre/c35/soac/processOption.scs
Reading file:  /opt/pdk/ams/410/spectre/c35/soac/process.scs
Reading file:  /opt/pdk/ams/410/spectre/c35/soac/soac.va

Warning from spectre during AHDL read-in.
    WARNING (VACOMP-2435): The environment variable CDS_AHDLCMI_ENABLE is no longer supported. Therefore, the simulator will use the default compiled C code flow.

Reading link:  /opt/tools/cadence/installs/SPECTRE241/tools.lnx86/spectre/etc/ahdl/constants.h
Reading file:  /opt/tools/cadence/installs/SPECTRE241/tools.lnx86/spectre/etc/ahdl/constants.vams
Reading link:  /opt/tools/cadence/installs/SPECTRE241/tools.lnx86/spectre/etc/ahdl/discipline.h
Reading file:  /opt/tools/cadence/installs/SPECTRE241/tools.lnx86/spectre/etc/ahdl/disciplines.vams
Reading file:  /opt/pdk/ams/410/spectre/c35/processOption/C35B4C3.scs
Reading file:  /opt/pdk/ams/410/spectre/c35/soac/cmos53.scs
Reading file:  /opt/pdk/ams/410/spectre/c35/soac/res.scs
Reading file:  /opt/pdk/ams/410/spectre/c35/soac/cap.scs
Reading file:  /opt/pdk/ams/410/spectre/c35/soac/bip.scs
Reading file:  /opt/pdk/ams/410/spectre/c35/soac/ind.scs
Reading file:  /opt/pdk/ams/410/spectre/c35/soac/esddiode.scs
Time for NDB Parsing: CPU = 168.516 ms, elapsed = 343.486 ms.
Time accumulated: CPU = 371.012 ms, elapsed = 343.489 ms.
Peak resident memory used = 175 Mbytes.

Existing shared object for module modn_ahdl is up to date.
Installed compiled interface for modn_ahdl.
Existing shared object for module modp_ahdl is up to date.
Installed compiled interface for modp_ahdl.
Existing shared object for module cpoly_ahdl is up to date.
Installed compiled interface for cpoly_ahdl.
Existing shared object for module rpolyh_ahdl is up to date.
Installed compiled interface for rpolyh_ahdl.
Existing shared object for module bsource_19b458 is up to date.
Installed compiled interface for bsource_19b458.
Time for Elaboration: CPU = 56.902 ms, elapsed = 60.041 ms.
Time accumulated: CPU = 428.055 ms, elapsed = 403.67 ms.
Peak resident memory used = 188 Mbytes.


Notice from spectre during hierarchy flattening.
    The value 'psf' specified for the 'checklimitdest' option will no longer be supported in future releases. Use 'spectre -h' to see other recommended values for the 'checklimitdest' option.


*****************************************************************************************
* 
* INFO: AMS_processOption = C35B4C3
* 
* INFO: Valid Modules  PIP VG5 HIRES
* 
*****************************************************************************************


Notice from spectre during hierarchy flattening.
    V8: `period' has the unusually large value of 100 s.


Time for EDB Visiting: CPU = 8.591 ms, elapsed = 8.59189 ms.
Time accumulated: CPU = 436.774 ms, elapsed = 412.388 ms.
Peak resident memory used = 191 Mbytes.

Loading /opt/tools/cadence/installs/SPECTRE241/tools.lnx86/mdl/lib/64bit/libSpectreEH_sh.so ...

Warning from spectre during initial setup.
    WARNING (SPECTRE-16460): SOAC_cvarm_vspsub:Specified subcircuit master `cvarm' was not found.
    WARNING (SPECTRE-16462): SOAC_cvarm_vspsub:Error in specification of subcircuit master. Assert is ignored.
    WARNING (SPECTRE-16460): SOAC_cvarm_vbs:Specified subcircuit master `cvarm' was not found.
    WARNING (SPECTRE-16462): SOAC_cvarm_vbs:Error in specification of subcircuit master. Assert is ignored.
    WARNING (SPECTRE-16460): SOAC_cvarm_vgb:Specified subcircuit master `cvarm' was not found.
    WARNING (SPECTRE-16462): SOAC_cvarm_vgb:Error in specification of subcircuit master. Assert is ignored.
    WARNING (SPECTRE-16460): SOAC_cvart_vspsub:Specified subcircuit master `cvart' was not found.
    WARNING (SPECTRE-16462): SOAC_cvart_vspsub:Error in specification of subcircuit master. Assert is ignored.
    WARNING (SPECTRE-16460): SOAC_cvart_vbs:Specified subcircuit master `cvart' was not found.
        Further occurrences of this warning will be suppressed.
    WARNING (SPECTRE-16462): SOAC_cvart_vbs:Error in specification of subcircuit master. Assert is ignored.
        Further occurrences of this warning will be suppressed.
Notice from spectre during topology check.
    Only one connection to the following 54 nodes:
        I0.MN6.psub!
        I0.MN5.psub!
        I0.MN4.psub!
        I0.MN3.psub!
        I0.MN2.psub!
        Further occurrences of this notice will be suppressed.
Notice from spectre during initial setup.
    Multithreading is disabled due to the size of the design being too small.


Netlist title:
        // Point Netlist Generated on: Apr 15 16:48:04 2026


Global user options:
         psfversion = 1.4.0
            vabstol = 1e-06
            iabstol = 1e-12
               temp = 85
           homotopy = 5
              limit = delta
         compatible = spice2
               gmin = 1e-12
             rforce = 1
           maxnotes = 5
           maxwarns = 5
             digits = 5
               cols = 80
             pivrel = 0.001
           sensfile = ../psf/sens.output
     checklimitdest = psf
     enable_pre_ver = yes
      ignorezerovar = yes
               save = allpub
             reltol = 0.0001
               tnom = 27
             scalem = 1
              scale = 1

Scoped user options:

Circuit inventory:
              nodes 88
            bsim3v3 35    
     bsource_19b458 2     
          capacitor 38    
         cpoly_ahdl 17    
            isource 1     
          modn_ahdl 19    
          modp_ahdl 16    
           resistor 1     
        rpolyh_ahdl 2     
            vsource 8     

Analysis and control statement inventory:
               info 7     
         montecarlo 1     
               tran 1     

Output statements:
             .probe 0     
           .measure 0     
               save 0     

Design checks inventory:
          paramtest 55    
             assert 175   


Notice from spectre during initial setup.
    APS enabled.
    1 notice suppressed.
    72 warnings suppressed.

Time for parsing: CPU = 18.816 ms, elapsed = 629.706 ms.
Time accumulated: CPU = 455.693 ms, elapsed = 1.0422 s.
Peak resident memory used = 198 Mbytes.

~~~~~~~~~~~~~~~~~~~~~~
Pre-Simulation Summary
~~~~~~~~~~~~~~~~~~~~~~
   -   (APS) Multi-threading. The recommended number of threads is 1, consider adding +mt=1 on command line.
~~~~~~~~~~~~~~~~~~~~~~

**************************************************
Monte Carlo Analysis `mc1': iteration = (1 -> 100)
**************************************************
Important parameter values:
    seed = 12345
    sampling = lds
    variations = all
    firstrun = 1
    numruns = 100
    nullmfactorcorrelation = no
    donominal = yes
    method = standard

**** Performing nominal run for `mc1'

Notice from spectre during transient analysis `tran', during Monte Carlo analysis `mc1'.
    No checklimit analysis defined for asserts. A default checklimit analysis 'SpectreChecklimitAnal' has been created with all asserts enabled.


***********************************************
Transient Analysis `tran': time = (0 s -> 50 s)
***********************************************

Warning from spectre during check, during IC analysis, during transient analysis `tran', during Monte Carlo analysis `mc1'.
    WARNING (CMI-2943): Parameter checks have been ignored because the valid value for parameter 'trise' could not be found in 'C1'.
    WARNING (CMI-2943): Parameter checks have been ignored because the valid value for parameter 'trise' could not be found in 'I0.R2.CM'.
    WARNING (CMI-2943): Parameter checks have been ignored because the valid value for parameter 'trise' could not be found in 'I0.R2.CS1'.
    WARNING (CMI-2943): Parameter checks have been ignored because the valid value for parameter 'trise' could not be found in 'I0.R2.CS0'.
    WARNING (CMI-2943): Parameter checks have been ignored because the valid value for parameter 'trise' could not be found in 'I0.C3.C1'.
        Further occurrences of this warning will be suppressed.

Convergence achieved in 12 iterations.
DC simulation time: CPU = 3.008 ms, elapsed = 3.00908 ms.

Opening the PSF file ../psf/nom/tran.tran.tran ...
Important parameter values:
    start = 0 s
    outputstart = 0 s
    stop = 50 s
    step = 50 ms
    maxstep = 500 ms
    ic = all
    useprevic = no
    skipdc = no
    reltol = 10e-06
    abstol(V) = 1 uV
    abstol(I) = 1 pA
    temp = 85 C
    tnom = 27 C
    tempeffects = all
    errpreset = conservative
    method = gear2only
    lteratio = 10
    relref = alllocal
    cmin = 0 F
    gmin = 1 pS
    rabsshort = 1 mOhm


Notice from spectre during transient analysis `tran', during Monte Carlo analysis `mc1'.
    Multithreading is disabled due to the size of the design being too small.


Output and IC/nodeset summary:
                 save   8       (current)
                 save   87      (voltage)

    tran: time = 1.342 s     (2.68 %), step = 111.6 ms     (223 m%)
    tran: time = 3.936 s     (7.87 %), step = 338 ms       (676 m%)
    tran: time = 6.583 s     (13.2 %), step = 500 ms          (1 %)
    tran: time = 9.083 s     (18.2 %), step = 500 ms          (1 %)
    tran: time = 11.58 s     (23.2 %), step = 500 ms          (1 %)
    tran: time = 14.08 s     (28.2 %), step = 500 ms          (1 %)
    tran: time = 16.58 s     (33.2 %), step = 500 ms          (1 %)
    tran: time = 19.08 s     (38.2 %), step = 500 ms          (1 %)
    tran: time = 21.58 s     (43.2 %), step = 500 ms          (1 %)
    tran: time = 24.08 s     (48.2 %), step = 500 ms          (1 %)
    tran: time = 26.58 s     (53.2 %), step = 500 ms          (1 %)
    tran: time = 29.08 s     (58.2 %), step = 500 ms          (1 %)
    tran: time = 31.58 s     (63.2 %), step = 500 ms          (1 %)
    tran: time = 34.08 s     (68.2 %), step = 500 ms          (1 %)
    tran: time = 36.58 s     (73.2 %), step = 500 ms          (1 %)
    tran: time = 39.08 s     (78.2 %), step = 500 ms          (1 %)
    tran: time = 41.58 s     (83.2 %), step = 500 ms          (1 %)
    tran: time = 44.08 s     (88.2 %), step = 500 ms          (1 %)
    tran: time = 46.58 s     (93.2 %), step = 500 ms          (1 %)
    tran: time = 49.08 s     (98.2 %), step = 500 ms          (1 %)
Number of accepted tran steps =             732

Maximum value achieved for any signal of each quantity: 
V: V(S<0>) = 3.3 V
I: I(V8:p) = 6.45 uA

~~~~~~~~~~~~~~~~~~~~~~~~~~~~~~~~~
Post-Transient Simulation Summary
~~~~~~~~~~~~~~~~~~~~~~~~~~~~~~~~~
   -   To further speed up simulation, consider
          add ++aps on command line
   -   Non-default settings that could significantly slow down simulation
          errpreset = conservative, default moderate
          reltol = 10e-06, default 100e-06 (conservative)
~~~~~~~~~~~~~~~~~~~~~~~~~~~~~~~~~


During simulation, the CPU load for active processors is :
         0 (5.8 %)       1 (10.6 %)      2 (100.0 %)     3 (2.9 %)
         4 (16.9 %)      5 (8.4 %)       6 (83.9 %)      7 (2.9 %)
         8 (3.6 %)       9 (7.9 %)      10 (19.0 %)     11 (11.3 %)
        12 (4.9 %)      13 (30.0 %)     15 (4.3 %)      16 (12.1 %)
        17 (2.9 %)      18 (5.7 %)      19 (90.4 %)     20 (4.3 %)
        22 (11.3 %)     23 (100.0 %)    24 (58.6 %)     25 (7.1 %)
        26 (2.9 %)      27 (5.0 %)      28 (100.0 %)    29 (2.1 %)
        30 (33.3 %)     31 (30.3 %)     32 (4.3 %)      33 (7.2 %)
        34 (5.0 %)      35 (4.3 %)      36 (2.8 %)      37 (41.7 %)
        38 (20.6 %)     39 (2.8 %)      40 (100.0 %)    41 (7.1 %)
        42 (4.3 %)      43 (1.4 %)      44 (2.9 %)      45 (1.4 %)
        46 (34.5 %)     47 (4.2 %)      
        Total: 1024.4%
Initial condition solution time: CPU = 3.05 ms, elapsed = 3.052 ms.
Intrinsic tran analysis time:    CPU = 436.331 ms, elapsed = 438.138 ms.
Total time required for tran analysis `tran': CPU = 521.98 ms, elapsed = 527.587 ms, util. = 98.9%.
Time accumulated: CPU = 1.0057 s, elapsed = 1.59933 s.
Peak resident memory used = 209 Mbytes.


Notice from spectre during transient analysis `tran', during Monte Carlo analysis `mc1'.
    34 warnings suppressed.

finalTimeOP: writing operating point information to rawfile.

Opening the PSF file ../psf/nom/finalTimeOP.info ...
modelParameter: writing model parameter values to rawfile.

Opening the PSF file ../psf/nom/modelParameter.info ...
element: writing instance parameter values to rawfile.

Opening the PSF file ../psf/nom/element.info ...
outputParameter: writing output parameter values to rawfile.

Opening the PSF file ../psf/nom/outputParameter.info ...
designParamVals: writing netlist parameters to rawfile.

Opening the PSFASCII file ../psf/nom/designParamVals.info ...
primitives: writing primitives to rawfile.

Opening the PSFASCII file ../psf/nom/primitives.info.primitives ...
subckts: writing subcircuits to rawfile.

Opening the PSFASCII file ../psf/nom/subckts.info.subckts ...
Opening iteration number and data-directory mapping file:  /home/davidevi/Desktop/myproject/Sim/VGA/VGA_1_wakeup_tb/adexl/results/data/MonteCarlo.0/7/wakeup/groupRunDataDir/netlist/../psf/mc1.mapping

Statistical parameters:
    Defined process parameters: 629
    Defined mismatch parameters (subckt based): 86
    Non-referenced mismatch parameters: 80
    Number of random variables: 718
    Gaussian truncation for process parameters: 4.00 sigma
    Gaussian truncation for mismatch parameters: 4.00 sigma


Opening the PSF file ../psf/mc1_tran.montecarlo ...

Opening the PSF file ../psf/mc1_finalTimeOP.montecarlo ...

Opening the PSF file ../psf/mc1_modelParameter.montecarlo ...

Opening the PSF file ../psf/mc1_element.montecarlo ...

Opening the PSF file ../psf/mc1_outputParameter.montecarlo ...

Opening the PSF file ../psf/mc1_designParamVals.montecarlo ...

Opening the PSF file ../psf/mc1_primitives.montecarlo ...

Opening the PSF file ../psf/mc1_subckts.montecarlo ...

**** Performing monte carlo loop for `mc1'

1   0.00% 

*****************************************************************************************
* 
* INFO: AMS_processOption = C35B4C3
* 
* INFO: Valid Modules  PIP VG5 HIRES
* 
*****************************************************************************************


Notice from spectre at iteration = 1 during Monte Carlo analysis `mc1'.
    V8: `period' has the unusually large value of 100 s.


***********************************************
Transient Analysis `tran': time = (0 s -> 50 s)
***********************************************

Opening the PSF file ../psf/mc1_separate/001/tran.tran.tran ...

Warning from spectre at iteration = 1 during check, during IC analysis, during transient analysis `tran', during Monte Carlo analysis `mc1'.
    WARNING (CMI-2943): Parameter checks have been ignored because the valid value for parameter 'trise' could not be found in 'C1'.
    WARNING (CMI-2943): Parameter checks have been ignored because the valid value for parameter 'trise' could not be found in 'I0.R2.CM'.
    WARNING (CMI-2943): Parameter checks have been ignored because the valid value for parameter 'trise' could not be found in 'I0.R2.CS1'.
    WARNING (CMI-2943): Parameter checks have been ignored because the valid value for parameter 'trise' could not be found in 'I0.R2.CS0'.
    WARNING (CMI-2943): Parameter checks have been ignored because the valid value for parameter 'trise' could not be found in 'I0.C3.C1'.
        Further occurrences of this warning will be suppressed.

Convergence achieved in 12 iterations.
DC simulation time: CPU = 2.462 ms, elapsed = 2.46191 ms.
Important parameter values:
    start = 0 s
    outputstart = 0 s
    stop = 50 s
    step = 50 ms
    maxstep = 500 ms
    ic = all
    useprevic = no
    skipdc = no
    reltol = 10e-06
    abstol(V) = 1 uV
    abstol(I) = 1 pA
    temp = 85 C
    tnom = 27 C
    tempeffects = all
    errpreset = conservative
    method = gear2only
    lteratio = 10
    relref = alllocal
    cmin = 0 F
    gmin = 1 pS
    rabsshort = 1 mOhm


Notice from spectre at iteration = 1 during transient analysis `tran', during Monte Carlo analysis `mc1'.
    Multithreading is disabled due to the size of the design being too small.


Output and IC/nodeset summary:
                 save   8       (current)
                 save   87      (voltage)

    tran: time = 1.301 s      (2.6 %), step = 104.7 ms     (209 m%)
    tran: time = 4.095 s     (8.19 %), step = 348.4 ms     (697 m%)
    tran: time = 6.296 s     (12.6 %), step = 500 ms          (1 %)
    tran: time = 8.796 s     (17.6 %), step = 500 ms          (1 %)
    tran: time = 11.3 s      (22.6 %), step = 500 ms          (1 %)
    tran: time = 13.8 s      (27.6 %), step = 500 ms          (1 %)
    tran: time = 16.3 s      (32.6 %), step = 500 ms          (1 %)
    tran: time = 18.8 s      (37.6 %), step = 500 ms          (1 %)
    tran: time = 21.3 s      (42.6 %), step = 500 ms          (1 %)
    tran: time = 23.8 s      (47.6 %), step = 500 ms          (1 %)
    tran: time = 26.3 s      (52.6 %), step = 500 ms          (1 %)
    tran: time = 28.8 s      (57.6 %), step = 500 ms          (1 %)
    tran: time = 31.3 s      (62.6 %), step = 500 ms          (1 %)
    tran: time = 33.8 s      (67.6 %), step = 500 ms          (1 %)
    tran: time = 36.3 s      (72.6 %), step = 500 ms          (1 %)
    tran: time = 38.8 s      (77.6 %), step = 500 ms          (1 %)
    tran: time = 41.3 s      (82.6 %), step = 500 ms          (1 %)
    tran: time = 43.8 s      (87.6 %), step = 500 ms          (1 %)
    tran: time = 46.3 s      (92.6 %), step = 500 ms          (1 %)
    tran: time = 48.8 s      (97.6 %), step = 500 ms          (1 %)
Number of accepted tran steps =             745

Maximum value achieved for any signal of each quantity: 
V: V(S<0>) = 3.3 V
I: I(V8:p) = 6.379 uA

~~~~~~~~~~~~~~~~~~~~~~~~~~~~~~~~~
Post-Transient Simulation Summary
~~~~~~~~~~~~~~~~~~~~~~~~~~~~~~~~~
   -   To further speed up simulation, consider
          add ++aps on command line
   -   Non-default settings that could significantly slow down simulation
          errpreset = conservative, default moderate
          reltol = 10e-06, default 100e-06 (conservative)
~~~~~~~~~~~~~~~~~~~~~~~~~~~~~~~~~


During simulation, the CPU load for active processors is :
         0 (10.9 %)      1 (7.8 %)       2 (100.0 %)     3 (3.0 %)
         4 (12.2 %)      5 (10.2 %)      6 (67.5 %)      7 (11.6 %)
         8 (5.9 %)       9 (8.8 %)      10 (20.5 %)     11 (9.4 %)
        12 (5.8 %)      13 (51.5 %)     14 (2.0 %)      15 (4.0 %)
        16 (9.7 %)      17 (3.9 %)      18 (6.3 %)      19 (89.2 %)
        20 (4.9 %)      21 (1.5 %)      22 (11.2 %)     23 (100.0 %)
        24 (52.0 %)     25 (24.5 %)     26 (3.0 %)      27 (4.4 %)
        28 (100.0 %)    29 (2.0 %)      30 (33.5 %)     31 (21.5 %)
        32 (5.4 %)      33 (5.9 %)      34 (4.4 %)      35 (3.4 %)
        36 (2.4 %)      37 (59.0 %)     38 (17.1 %)     39 (2.0 %)
        40 (100.0 %)    41 (5.9 %)      42 (3.0 %)      43 (4.4 %)
        44 (2.9 %)      45 (2.9 %)      46 (23.9 %)     47 (4.9 %)
        Total: 1045.7%
Initial condition solution time: CPU = 2.502 ms, elapsed = 2.50387 ms.
Intrinsic tran analysis time:    CPU = 443.892 ms, elapsed = 445.306 ms.
Total time required for tran analysis `tran': CPU = 449.043 ms, elapsed = 451.127 ms, util. = 99.5%.
Time accumulated: CPU = 1.53269 s, elapsed = 2.14423 s.
Peak resident memory used = 213 Mbytes.


Notice from spectre during transient analysis `tran', during Monte Carlo analysis `mc1'.
    34 warnings suppressed.

finalTimeOP: writing operating point information to rawfile.

Opening the PSF file ../psf/mc1_separate/001/finalTimeOP.info ...
modelParameter: writing model parameter values to rawfile.

Opening the PSF file ../psf/mc1_separate/001/modelParameter.info ...
element: writing instance parameter values to rawfile.

Opening the PSF file ../psf/mc1_separate/001/element.info ...
outputParameter: writing output parameter values to rawfile.

Opening the PSF file ../psf/mc1_separate/001/outputParameter.info ...
designParamVals: writing netlist parameters to rawfile.

Opening the PSFASCII file ../psf/mc1_separate/001/designParamVals.info ...
primitives: writing primitives to rawfile.

Opening the PSFASCII file ../psf/mc1_separate/001/primitives.info.primitives ...
subckts: writing subcircuits to rawfile.

Opening the PSFASCII file ../psf/mc1_separate/001/subckts.info.subckts ...
2   1.01% 

*****************************************************************************************
* 
* INFO: AMS_processOption = C35B4C3
* 
* INFO: Valid Modules  PIP VG5 HIRES
* 
*****************************************************************************************


Notice from spectre during Monte Carlo analysis `mc1'.
    V8: `period' has the unusually large value of 100 s.


***********************************************
Transient Analysis `tran': time = (0 s -> 50 s)
***********************************************

Opening the PSF file ../psf/mc1_separate/002/tran.tran.tran ...

Warning from spectre during check, during IC analysis, during transient analysis `tran', during Monte Carlo analysis `mc1'.
    WARNING (CMI-2943): Parameter checks have been ignored because the valid value for parameter 'trise' could not be found in 'C1'.
    WARNING (CMI-2943): Parameter checks have been ignored because the valid value for parameter 'trise' could not be found in 'I0.R2.CM'.
    WARNING (CMI-2943): Parameter checks have been ignored because the valid value for parameter 'trise' could not be found in 'I0.R2.CS1'.
    WARNING (CMI-2943): Parameter checks have been ignored because the valid value for parameter 'trise' could not be found in 'I0.R2.CS0'.
    WARNING (CMI-2943): Parameter checks have been ignored because the valid value for parameter 'trise' could not be found in 'I0.C3.C1'.
        Further occurrences of this warning will be suppressed.

Convergence achieved in 12 iterations.
DC simulation time: CPU = 2.41 ms, elapsed = 2.41113 ms.
Important parameter values:
    start = 0 s
    outputstart = 0 s
    stop = 50 s
    step = 50 ms
    maxstep = 500 ms
    ic = all
    useprevic = no
    skipdc = no
    reltol = 10e-06
    abstol(V) = 1 uV
    abstol(I) = 1 pA
    temp = 85 C
    tnom = 27 C
    tempeffects = all
    errpreset = conservative
    method = gear2only
    lteratio = 10
    relref = alllocal
    cmin = 0 F
    gmin = 1 pS
    rabsshort = 1 mOhm


Notice from spectre during transient analysis `tran', during Monte Carlo analysis `mc1'.
    Multithreading is disabled due to the size of the design being too small.


Output and IC/nodeset summary:
                 save   8       (current)
                 save   87      (voltage)

    tran: time = 1.251 s      (2.5 %), step = 101.3 ms     (203 m%)
    tran: time = 3.958 s     (7.92 %), step = 338.3 ms     (677 m%)
    tran: time = 6.609 s     (13.2 %), step = 500 ms          (1 %)
    tran: time = 9.109 s     (18.2 %), step = 500 ms          (1 %)
    tran: time = 11.61 s     (23.2 %), step = 500 ms          (1 %)
    tran: time = 14.11 s     (28.2 %), step = 500 ms          (1 %)
    tran: time = 16.61 s     (33.2 %), step = 500 ms          (1 %)
    tran: time = 19.11 s     (38.2 %), step = 500 ms          (1 %)
    tran: time = 21.61 s     (43.2 %), step = 500 ms          (1 %)
    tran: time = 24.11 s     (48.2 %), step = 500 ms          (1 %)
    tran: time = 26.61 s     (53.2 %), step = 500 ms          (1 %)
    tran: time = 29.11 s     (58.2 %), step = 500 ms          (1 %)
    tran: time = 31.61 s     (63.2 %), step = 500 ms          (1 %)
    tran: time = 34.11 s     (68.2 %), step = 500 ms          (1 %)
    tran: time = 36.61 s     (73.2 %), step = 500 ms          (1 %)
    tran: time = 39.11 s     (78.2 %), step = 500 ms          (1 %)
    tran: time = 41.61 s     (83.2 %), step = 500 ms          (1 %)
    tran: time = 44.11 s     (88.2 %), step = 500 ms          (1 %)
    tran: time = 46.61 s     (93.2 %), step = 500 ms          (1 %)
    tran: time = 49.11 s     (98.2 %), step = 500 ms          (1 %)
Number of accepted tran steps =             740

Maximum value achieved for any signal of each quantity: 
V: V(S<0>) = 3.3 V
I: I(V8:p) = 6.402 uA

~~~~~~~~~~~~~~~~~~~~~~~~~~~~~~~~~
Post-Transient Simulation Summary
~~~~~~~~~~~~~~~~~~~~~~~~~~~~~~~~~
   -   To further speed up simulation, consider
          add ++aps on command line
   -   Non-default settings that could significantly slow down simulation
          errpreset = conservative, default moderate
          reltol = 10e-06, default 100e-06 (conservative)
~~~~~~~~~~~~~~~~~~~~~~~~~~~~~~~~~


During simulation, the CPU load for active processors is :
         0 (11.2 %)      1 (11.1 %)      2 (99.6 %)      3 (10.3 %)
         4 (12.6 %)      5 (11.8 %)      6 (56.1 %)      7 (11.6 %)
         8 (5.9 %)       9 (9.1 %)      10 (20.7 %)     11 (10.6 %)
        12 (6.5 %)      13 (50.2 %)     14 (2.0 %)      15 (4.0 %)
        16 (7.9 %)      17 (4.3 %)      18 (5.9 %)      19 (82.9 %)
        20 (5.2 %)      21 (19.7 %)     22 (10.2 %)     23 (100.0 %)
        24 (53.9 %)     25 (38.8 %)     26 (9.1 %)      27 (5.1 %)
        28 (100.0 %)    29 (3.2 %)      30 (27.8 %)     31 (17.3 %)
        32 (4.3 %)      33 (5.1 %)      34 (4.3 %)      35 (6.7 %)
        36 (3.1 %)      37 (48.8 %)     38 (32.0 %)     39 (2.4 %)
        40 (100.0 %)    41 (6.3 %)      42 (4.3 %)      43 (8.9 %)
        44 (2.4 %)      45 (3.9 %)      46 (19.6 %)     47 (4.7 %)
        Total: 1081.3%
Initial condition solution time: CPU = 2.448 ms, elapsed = 2.44904 ms.
Intrinsic tran analysis time:    CPU = 448.219 ms, elapsed = 449.625 ms.
Total time required for tran analysis `tran': CPU = 453.179 ms, elapsed = 455.191 ms, util. = 99.6%.
Time accumulated: CPU = 2.02657 s, elapsed = 2.65155 s.
Peak resident memory used = 213 Mbytes.


Notice from spectre during transient analysis `tran', during Monte Carlo analysis `mc1'.
    34 warnings suppressed.

finalTimeOP: writing operating point information to rawfile.

Opening the PSF file ../psf/mc1_separate/002/finalTimeOP.info ...
modelParameter: writing model parameter values to rawfile.

Opening the PSF file ../psf/mc1_separate/002/modelParameter.info ...
element: writing instance parameter values to rawfile.

Opening the PSF file ../psf/mc1_separate/002/element.info ...
outputParameter: writing output parameter values to rawfile.

Opening the PSF file ../psf/mc1_separate/002/outputParameter.info ...
designParamVals: writing netlist parameters to rawfile.

Opening the PSFASCII file ../psf/mc1_separate/002/designParamVals.info ...
primitives: writing primitives to rawfile.

Opening the PSFASCII file ../psf/mc1_separate/002/primitives.info.primitives ...
subckts: writing subcircuits to rawfile.

Opening the PSFASCII file ../psf/mc1_separate/002/subckts.info.subckts ...
3   2.02% 

*****************************************************************************************
* 
* INFO: AMS_processOption = C35B4C3
* 
* INFO: Valid Modules  PIP VG5 HIRES
* 
*****************************************************************************************


Notice from spectre during Monte Carlo analysis `mc1'.
    V8: `period' has the unusually large value of 100 s.


***********************************************
Transient Analysis `tran': time = (0 s -> 50 s)
***********************************************

Opening the PSF file ../psf/mc1_separate/003/tran.tran.tran ...

Warning from spectre during check, during IC analysis, during transient analysis `tran', during Monte Carlo analysis `mc1'.
    WARNING (CMI-2943): Parameter checks have been ignored because the valid value for parameter 'trise' could not be found in 'C1'.
    WARNING (CMI-2943): Parameter checks have been ignored because the valid value for parameter 'trise' could not be found in 'I0.R2.CM'.
    WARNING (CMI-2943): Parameter checks have been ignored because the valid value for parameter 'trise' could not be found in 'I0.R2.CS1'.
    WARNING (CMI-2943): Parameter checks have been ignored because the valid value for parameter 'trise' could not be found in 'I0.R2.CS0'.
    WARNING (CMI-2943): Parameter checks have been ignored because the valid value for parameter 'trise' could not be found in 'I0.C3.C1'.
        Further occurrences of this warning will be suppressed.

Convergence achieved in 12 iterations.
DC simulation time: CPU = 2.372 ms, elapsed = 2.37203 ms.
Important parameter values:
    start = 0 s
    outputstart = 0 s
    stop = 50 s
    step = 50 ms
    maxstep = 500 ms
    ic = all
    useprevic = no
    skipdc = no
    reltol = 10e-06
    abstol(V) = 1 uV
    abstol(I) = 1 pA
    temp = 85 C
    tnom = 27 C
    tempeffects = all
    errpreset = conservative
    method = gear2only
    lteratio = 10
    relref = alllocal
    cmin = 0 F
    gmin = 1 pS
    rabsshort = 1 mOhm


Notice from spectre during transient analysis `tran', during Monte Carlo analysis `mc1'.
    Multithreading is disabled due to the size of the design being too small.


Output and IC/nodeset summary:
                 save   8       (current)
                 save   87      (voltage)

    tran: time = 1.268 s     (2.54 %), step = 108 ms       (216 m%)
    tran: time = 3.781 s     (7.56 %), step = 327.3 ms     (655 m%)
    tran: time = 6.36 s      (12.7 %), step = 500 ms          (1 %)
    tran: time = 8.86 s      (17.7 %), step = 500 ms          (1 %)
    tran: time = 11.36 s     (22.7 %), step = 500 ms          (1 %)
    tran: time = 13.86 s     (27.7 %), step = 500 ms          (1 %)
    tran: time = 16.36 s     (32.7 %), step = 500 ms          (1 %)
    tran: time = 18.86 s     (37.7 %), step = 500 ms          (1 %)
    tran: time = 21.36 s     (42.7 %), step = 500 ms          (1 %)
    tran: time = 23.86 s     (47.7 %), step = 500 ms          (1 %)
    tran: time = 26.36 s     (52.7 %), step = 500 ms          (1 %)
    tran: time = 28.86 s     (57.7 %), step = 500 ms          (1 %)
    tran: time = 31.36 s     (62.7 %), step = 500 ms          (1 %)
    tran: time = 33.86 s     (67.7 %), step = 500 ms          (1 %)
    tran: time = 36.36 s     (72.7 %), step = 500 ms          (1 %)
    tran: time = 38.86 s     (77.7 %), step = 500 ms          (1 %)
    tran: time = 41.36 s     (82.7 %), step = 500 ms          (1 %)
    tran: time = 43.86 s     (87.7 %), step = 500 ms          (1 %)
    tran: time = 46.36 s     (92.7 %), step = 500 ms          (1 %)
    tran: time = 48.86 s     (97.7 %), step = 500 ms          (1 %)
Number of accepted tran steps =             739

Maximum value achieved for any signal of each quantity: 
V: V(S<0>) = 3.3 V
I: I(V8:p) = 6.321 uA

~~~~~~~~~~~~~~~~~~~~~~~~~~~~~~~~~
Post-Transient Simulation Summary
~~~~~~~~~~~~~~~~~~~~~~~~~~~~~~~~~
   -   To further speed up simulation, consider
          add ++aps on command line
   -   Non-default settings that could significantly slow down simulation
          errpreset = conservative, default moderate
          reltol = 10e-06, default 100e-06 (conservative)
~~~~~~~~~~~~~~~~~~~~~~~~~~~~~~~~~


During simulation, the CPU load for active processors is :
         0 (10.6 %)      1 (12.2 %)      2 (99.7 %)      3 (11.6 %)
         4 (11.6 %)      5 (22.5 %)      6 (48.2 %)      7 (13.7 %)
         8 (7.9 %)       9 (10.6 %)     10 (21.6 %)     11 (15.5 %)
        12 (7.4 %)      13 (43.5 %)     14 (1.7 %)      15 (5.0 %)
        16 (7.2 %)      17 (4.2 %)      18 (5.3 %)      19 (85.3 %)
        20 (4.7 %)      21 (29.8 %)     22 (11.1 %)     23 (100.0 %)
        24 (49.3 %)     25 (48.2 %)     26 (10.9 %)     27 (4.3 %)
        28 (100.0 %)    29 (3.0 %)      30 (23.7 %)     31 (15.4 %)
        32 (5.0 %)      33 (5.3 %)      34 (3.9 %)      35 (18.4 %)
        36 (3.0 %)      37 (41.1 %)     38 (42.8 %)     39 (2.3 %)
        40 (100.0 %)    41 (5.9 %)      42 (4.0 %)      43 (18.2 %)
        44 (2.3 %)      45 (6.9 %)      46 (18.6 %)     47 (4.6 %)
        Total: 1127.7%
Initial condition solution time: CPU = 2.433 ms, elapsed = 2.43497 ms.
Intrinsic tran analysis time:    CPU = 445.665 ms, elapsed = 447.179 ms.
Total time required for tran analysis `tran': CPU = 450.391 ms, elapsed = 452.612 ms, util. = 99.5%.
Time accumulated: CPU = 2.51702 s, elapsed = 3.15553 s.
Peak resident memory used = 213 Mbytes.


Notice from spectre during transient analysis `tran', during Monte Carlo analysis `mc1'.
    34 warnings suppressed.

finalTimeOP: writing operating point information to rawfile.

Opening the PSF file ../psf/mc1_separate/003/finalTimeOP.info ...
modelParameter: writing model parameter values to rawfile.

Opening the PSF file ../psf/mc1_separate/003/modelParameter.info ...
element: writing instance parameter values to rawfile.

Opening the PSF file ../psf/mc1_separate/003/element.info ...
outputParameter: writing output parameter values to rawfile.

Opening the PSF file ../psf/mc1_separate/003/outputParameter.info ...
designParamVals: writing netlist parameters to rawfile.

Opening the PSFASCII file ../psf/mc1_separate/003/designParamVals.info ...
primitives: writing primitives to rawfile.

Opening the PSFASCII file ../psf/mc1_separate/003/primitives.info.primitives ...
subckts: writing subcircuits to rawfile.

Opening the PSFASCII file ../psf/mc1_separate/003/subckts.info.subckts ...
4   3.03% 

*****************************************************************************************
* 
* INFO: AMS_processOption = C35B4C3
* 
* INFO: Valid Modules  PIP VG5 HIRES
* 
*****************************************************************************************


Notice from spectre during Monte Carlo analysis `mc1'.
    V8: `period' has the unusually large value of 100 s.


***********************************************
Transient Analysis `tran': time = (0 s -> 50 s)
***********************************************

Opening the PSF file ../psf/mc1_separate/004/tran.tran.tran ...

Warning from spectre during check, during IC analysis, during transient analysis `tran', during Monte Carlo analysis `mc1'.
    WARNING (CMI-2943): Parameter checks have been ignored because the valid value for parameter 'trise' could not be found in 'C1'.
    WARNING (CMI-2943): Parameter checks have been ignored because the valid value for parameter 'trise' could not be found in 'I0.R2.CM'.
    WARNING (CMI-2943): Parameter checks have been ignored because the valid value for parameter 'trise' could not be found in 'I0.R2.CS1'.
    WARNING (CMI-2943): Parameter checks have been ignored because the valid value for parameter 'trise' could not be found in 'I0.R2.CS0'.
    WARNING (CMI-2943): Parameter checks have been ignored because the valid value for parameter 'trise' could not be found in 'I0.C3.C1'.
        Further occurrences of this warning will be suppressed.

Convergence achieved in 12 iterations.
DC simulation time: CPU = 2.3 ms, elapsed = 2.29979 ms.
Important parameter values:
    start = 0 s
    outputstart = 0 s
    stop = 50 s
    step = 50 ms
    maxstep = 500 ms
    ic = all
    useprevic = no
    skipdc = no
    reltol = 10e-06
    abstol(V) = 1 uV
    abstol(I) = 1 pA
    temp = 85 C
    tnom = 27 C
    tempeffects = all
    errpreset = conservative
    method = gear2only
    lteratio = 10
    relref = alllocal
    cmin = 0 F
    gmin = 1 pS
    rabsshort = 1 mOhm


Notice from spectre during transient analysis `tran', during Monte Carlo analysis `mc1'.
    Multithreading is disabled due to the size of the design being too small.


Output and IC/nodeset summary:
                 save   8       (current)
                 save   87      (voltage)

    tran: time = 1.363 s     (2.73 %), step = 117.4 ms     (235 m%)
    tran: time = 4.08 s      (8.16 %), step = 351 ms       (702 m%)
    tran: time = 6.283 s     (12.6 %), step = 500 ms          (1 %)
    tran: time = 8.783 s     (17.6 %), step = 500 ms          (1 %)
    tran: time = 11.28 s     (22.6 %), step = 500 ms          (1 %)
    tran: time = 13.78 s     (27.6 %), step = 500 ms          (1 %)
    tran: time = 16.28 s     (32.6 %), step = 500 ms          (1 %)
    tran: time = 18.78 s     (37.6 %), step = 500 ms          (1 %)
    tran: time = 21.28 s     (42.6 %), step = 500 ms          (1 %)
    tran: time = 23.78 s     (47.6 %), step = 500 ms          (1 %)
    tran: time = 26.28 s     (52.6 %), step = 500 ms          (1 %)
    tran: time = 28.78 s     (57.6 %), step = 500 ms          (1 %)
    tran: time = 31.28 s     (62.6 %), step = 500 ms          (1 %)
    tran: time = 33.78 s     (67.6 %), step = 500 ms          (1 %)
    tran: time = 36.28 s     (72.6 %), step = 500 ms          (1 %)
    tran: time = 38.78 s     (77.6 %), step = 500 ms          (1 %)
    tran: time = 41.28 s     (82.6 %), step = 500 ms          (1 %)
    tran: time = 43.78 s     (87.6 %), step = 500 ms          (1 %)
    tran: time = 46.28 s     (92.6 %), step = 500 ms          (1 %)
    tran: time = 48.78 s     (97.6 %), step = 500 ms          (1 %)
Number of accepted tran steps =             743

Maximum value achieved for any signal of each quantity: 
V: V(S<0>) = 3.3 V
I: I(V8:p) = 6.543 uA

~~~~~~~~~~~~~~~~~~~~~~~~~~~~~~~~~
Post-Transient Simulation Summary
~~~~~~~~~~~~~~~~~~~~~~~~~~~~~~~~~
   -   To further speed up simulation, consider
          add ++aps on command line
   -   Non-default settings that could significantly slow down simulation
          errpreset = conservative, default moderate
          reltol = 10e-06, default 100e-06 (conservative)
~~~~~~~~~~~~~~~~~~~~~~~~~~~~~~~~~


During simulation, the CPU load for active processors is :
         0 (9.5 %)       1 (11.9 %)      2 (99.7 %)      3 (11.1 %)
         4 (10.0 %)      5 (19.7 %)      6 (54.2 %)      7 (12.0 %)
         8 (6.8 %)       9 (9.4 %)      10 (21.8 %)     11 (13.6 %)
        12 (8.3 %)      13 (37.5 %)     14 (1.7 %)      15 (4.3 %)
        16 (6.2 %)      17 (3.9 %)      18 (16.6 %)     19 (75.6 %)
        20 (4.3 %)      21 (25.8 %)     22 (23.7 %)     23 (100.0 %)
        24 (45.6 %)     25 (42.1 %)     26 (23.4 %)     27 (4.2 %)
        28 (100.0 %)    29 (2.6 %)      30 (28.5 %)     31 (13.8 %)
        32 (4.8 %)      33 (5.1 %)      34 (4.2 %)      35 (26.0 %)
        36 (2.8 %)      37 (36.0 %)     38 (50.6 %)     39 (2.5 %)
        40 (100.0 %)    41 (5.4 %)      42 (4.0 %)      43 (29.6 %)
        44 (2.5 %)      45 (9.3 %)      46 (16.3 %)     47 (4.2 %)
        Total: 1151.2%
Initial condition solution time: CPU = 2.338 ms, elapsed = 2.33984 ms.
Intrinsic tran analysis time:    CPU = 451.6 ms, elapsed = 452.988 ms.
Total time required for tran analysis `tran': CPU = 456.556 ms, elapsed = 458.689 ms, util. = 99.5%.
Time accumulated: CPU = 3.01372 s, elapsed = 3.66452 s.
Peak resident memory used = 214 Mbytes.


Notice from spectre during transient analysis `tran', during Monte Carlo analysis `mc1'.
    34 warnings suppressed.

finalTimeOP: writing operating point information to rawfile.

Opening the PSF file ../psf/mc1_separate/004/finalTimeOP.info ...
modelParameter: writing model parameter values to rawfile.

Opening the PSF file ../psf/mc1_separate/004/modelParameter.info ...
element: writing instance parameter values to rawfile.

Opening the PSF file ../psf/mc1_separate/004/element.info ...
outputParameter: writing output parameter values to rawfile.

Opening the PSF file ../psf/mc1_separate/004/outputParameter.info ...
designParamVals: writing netlist parameters to rawfile.

Opening the PSFASCII file ../psf/mc1_separate/004/designParamVals.info ...
primitives: writing primitives to rawfile.

Opening the PSFASCII file ../psf/mc1_separate/004/primitives.info.primitives ...
subckts: writing subcircuits to rawfile.

Opening the PSFASCII file ../psf/mc1_separate/004/subckts.info.subckts ...
    mc1: iteration = 4           (3.03 %), step = 1            (1.01 %)
5   4.04% 

*****************************************************************************************
* 
* INFO: AMS_processOption = C35B4C3
* 
* INFO: Valid Modules  PIP VG5 HIRES
* 
*****************************************************************************************


Notice from spectre during Monte Carlo analysis `mc1'.
    V8: `period' has the unusually large value of 100 s.


***********************************************
Transient Analysis `tran': time = (0 s -> 50 s)
***********************************************

Opening the PSF file ../psf/mc1_separate/005/tran.tran.tran ...

Warning from spectre during check, during IC analysis, during transient analysis `tran', during Monte Carlo analysis `mc1'.
    WARNING (CMI-2943): Parameter checks have been ignored because the valid value for parameter 'trise' could not be found in 'C1'.
    WARNING (CMI-2943): Parameter checks have been ignored because the valid value for parameter 'trise' could not be found in 'I0.R2.CM'.
    WARNING (CMI-2943): Parameter checks have been ignored because the valid value for parameter 'trise' could not be found in 'I0.R2.CS1'.
    WARNING (CMI-2943): Parameter checks have been ignored because the valid value for parameter 'trise' could not be found in 'I0.R2.CS0'.
    WARNING (CMI-2943): Parameter checks have been ignored because the valid value for parameter 'trise' could not be found in 'I0.C3.C1'.
        Further occurrences of this warning will be suppressed.

Convergence achieved in 12 iterations.
DC simulation time: CPU = 2.658 ms, elapsed = 2.65908 ms.
Important parameter values:
    start = 0 s
    outputstart = 0 s
    stop = 50 s
    step = 50 ms
    maxstep = 500 ms
    ic = all
    useprevic = no
    skipdc = no
    reltol = 10e-06
    abstol(V) = 1 uV
    abstol(I) = 1 pA
    temp = 85 C
    tnom = 27 C
    tempeffects = all
    errpreset = conservative
    method = gear2only
    lteratio = 10
    relref = alllocal
    cmin = 0 F
    gmin = 1 pS
    rabsshort = 1 mOhm


Notice from spectre during transient analysis `tran', during Monte Carlo analysis `mc1'.
    Multithreading is disabled due to the size of the design being too small.


Output and IC/nodeset summary:
                 save   8       (current)
                 save   87      (voltage)

    tran: time = 1.304 s     (2.61 %), step = 106.6 ms     (213 m%)
    tran: time = 3.79 s      (7.58 %), step = 325 ms       (650 m%)
    tran: time = 6.366 s     (12.7 %), step = 500 ms          (1 %)
    tran: time = 8.866 s     (17.7 %), step = 500 ms          (1 %)
    tran: time = 11.37 s     (22.7 %), step = 500 ms          (1 %)
    tran: time = 13.87 s     (27.7 %), step = 500 ms          (1 %)
    tran: time = 16.37 s     (32.7 %), step = 500 ms          (1 %)
    tran: time = 18.87 s     (37.7 %), step = 500 ms          (1 %)
    tran: time = 21.37 s     (42.7 %), step = 500 ms          (1 %)
    tran: time = 23.87 s     (47.7 %), step = 500 ms          (1 %)
    tran: time = 26.37 s     (52.7 %), step = 500 ms          (1 %)
    tran: time = 28.87 s     (57.7 %), step = 500 ms          (1 %)
    tran: time = 31.37 s     (62.7 %), step = 500 ms          (1 %)
    tran: time = 33.87 s     (67.7 %), step = 500 ms          (1 %)
    tran: time = 36.37 s     (72.7 %), step = 500 ms          (1 %)
    tran: time = 38.87 s     (77.7 %), step = 500 ms          (1 %)
    tran: time = 41.37 s     (82.7 %), step = 500 ms          (1 %)
    tran: time = 43.87 s     (87.7 %), step = 500 ms          (1 %)
    tran: time = 46.37 s     (92.7 %), step = 500 ms          (1 %)
    tran: time = 48.87 s     (97.7 %), step = 500 ms          (1 %)
Number of accepted tran steps =             738

Maximum value achieved for any signal of each quantity: 
V: V(S<0>) = 3.3 V
I: I(V8:p) = 6.469 uA

~~~~~~~~~~~~~~~~~~~~~~~~~~~~~~~~~
Post-Transient Simulation Summary
~~~~~~~~~~~~~~~~~~~~~~~~~~~~~~~~~
   -   To further speed up simulation, consider
          add ++aps on command line
   -   Non-default settings that could significantly slow down simulation
          errpreset = conservative, default moderate
          reltol = 10e-06, default 100e-06 (conservative)
~~~~~~~~~~~~~~~~~~~~~~~~~~~~~~~~~


During simulation, the CPU load for active processors is :
         0 (9.0 %)       1 (10.9 %)      2 (99.8 %)      3 (10.4 %)
         4 (9.5 %)       5 (18.4 %)      6 (48.5 %)      7 (21.5 %)
         8 (6.0 %)       9 (9.7 %)      10 (21.2 %)     11 (13.1 %)
        12 (9.2 %)      13 (33.7 %)     14 (2.5 %)      15 (4.2 %)
        16 (5.7 %)      17 (4.2 %)      18 (25.1 %)     19 (68.8 %)
        20 (4.5 %)      21 (25.2 %)     22 (31.3 %)     23 (100.0 %)
        24 (42.7 %)     25 (38.7 %)     26 (30.6 %)     27 (3.7 %)
        28 (100.0 %)    29 (2.2 %)      30 (24.9 %)     31 (12.3 %)
        32 (4.5 %)      33 (4.7 %)      34 (4.0 %)      35 (33.8 %)
        36 (3.4 %)      37 (33.8 %)     38 (56.4 %)     39 (4.5 %)
        40 (100.0 %)    41 (5.0 %)      42 (4.0 %)      43 (30.9 %)
        44 (3.0 %)      45 (13.3 %)     46 (16.3 %)     47 (4.4 %)
        Total: 1169.3%
Initial condition solution time: CPU = 2.705 ms, elapsed = 2.70605 ms.
Intrinsic tran analysis time:    CPU = 447.233 ms, elapsed = 448.629 ms.
Total time required for tran analysis `tran': CPU = 452.902 ms, elapsed = 454.984 ms, util. = 99.5%.
Time accumulated: CPU = 3.51191 s, elapsed = 4.17662 s.
Peak resident memory used = 214 Mbytes.


Notice from spectre during transient analysis `tran', during Monte Carlo analysis `mc1'.
    34 warnings suppressed.

finalTimeOP: writing operating point information to rawfile.

Opening the PSF file ../psf/mc1_separate/005/finalTimeOP.info ...
modelParameter: writing model parameter values to rawfile.

Opening the PSF file ../psf/mc1_separate/005/modelParameter.info ...
element: writing instance parameter values to rawfile.

Opening the PSF file ../psf/mc1_separate/005/element.info ...
outputParameter: writing output parameter values to rawfile.

Opening the PSF file ../psf/mc1_separate/005/outputParameter.info ...
designParamVals: writing netlist parameters to rawfile.

Opening the PSFASCII file ../psf/mc1_separate/005/designParamVals.info ...
primitives: writing primitives to rawfile.

Opening the PSFASCII file ../psf/mc1_separate/005/primitives.info.primitives ...
subckts: writing subcircuits to rawfile.

Opening the PSFASCII file ../psf/mc1_separate/005/subckts.info.subckts ...
    mc1: iteration = 5           (4.04 %), step = 1            (1.01 %)
6   5.05% 

*****************************************************************************************
* 
* INFO: AMS_processOption = C35B4C3
* 
* INFO: Valid Modules  PIP VG5 HIRES
* 
*****************************************************************************************


Notice from spectre during Monte Carlo analysis `mc1'.
    V8: `period' has the unusually large value of 100 s.


***********************************************
Transient Analysis `tran': time = (0 s -> 50 s)
***********************************************

Opening the PSF file ../psf/mc1_separate/006/tran.tran.tran ...

Warning from spectre during check, during IC analysis, during transient analysis `tran', during Monte Carlo analysis `mc1'.
    WARNING (CMI-2943): Parameter checks have been ignored because the valid value for parameter 'trise' could not be found in 'C1'.
    WARNING (CMI-2943): Parameter checks have been ignored because the valid value for parameter 'trise' could not be found in 'I0.R2.CM'.
    WARNING (CMI-2943): Parameter checks have been ignored because the valid value for parameter 'trise' could not be found in 'I0.R2.CS1'.
    WARNING (CMI-2943): Parameter checks have been ignored because the valid value for parameter 'trise' could not be found in 'I0.R2.CS0'.
    WARNING (CMI-2943): Parameter checks have been ignored because the valid value for parameter 'trise' could not be found in 'I0.C3.C1'.
        Further occurrences of this warning will be suppressed.

Convergence achieved in 12 iterations.
DC simulation time: CPU = 2.66 ms, elapsed = 2.66004 ms.
Important parameter values:
    start = 0 s
    outputstart = 0 s
    stop = 50 s
    step = 50 ms
    maxstep = 500 ms
    ic = all
    useprevic = no
    skipdc = no
    reltol = 10e-06
    abstol(V) = 1 uV
    abstol(I) = 1 pA
    temp = 85 C
    tnom = 27 C
    tempeffects = all
    errpreset = conservative
    method = gear2only
    lteratio = 10
    relref = alllocal
    cmin = 0 F
    gmin = 1 pS
    rabsshort = 1 mOhm


Notice from spectre during transient analysis `tran', during Monte Carlo analysis `mc1'.
    Multithreading is disabled due to the size of the design being too small.


Output and IC/nodeset summary:
                 save   8       (current)
                 save   87      (voltage)

    tran: time = 1.321 s     (2.64 %), step = 110.9 ms     (222 m%)
    tran: time = 3.903 s     (7.81 %), step = 336.1 ms     (672 m%)
    tran: time = 6.534 s     (13.1 %), step = 500 ms          (1 %)
    tran: time = 9.034 s     (18.1 %), step = 500 ms          (1 %)
    tran: time = 11.53 s     (23.1 %), step = 500 ms          (1 %)
    tran: time = 14.03 s     (28.1 %), step = 500 ms          (1 %)
    tran: time = 16.53 s     (33.1 %), step = 500 ms          (1 %)
    tran: time = 19.03 s     (38.1 %), step = 500 ms          (1 %)
    tran: time = 21.53 s     (43.1 %), step = 500 ms          (1 %)
    tran: time = 24.03 s     (48.1 %), step = 500 ms          (1 %)
    tran: time = 26.53 s     (53.1 %), step = 500 ms          (1 %)
    tran: time = 29.03 s     (58.1 %), step = 500 ms          (1 %)
    tran: time = 31.53 s     (63.1 %), step = 500 ms          (1 %)
    tran: time = 34.03 s     (68.1 %), step = 500 ms          (1 %)
    tran: time = 36.53 s     (73.1 %), step = 500 ms          (1 %)
    tran: time = 39.03 s     (78.1 %), step = 500 ms          (1 %)
    tran: time = 41.53 s     (83.1 %), step = 500 ms          (1 %)
    tran: time = 44.03 s     (88.1 %), step = 500 ms          (1 %)
    tran: time = 46.53 s     (93.1 %), step = 500 ms          (1 %)
    tran: time = 49.03 s     (98.1 %), step = 500 ms          (1 %)
Number of accepted tran steps =             742

Maximum value achieved for any signal of each quantity: 
V: V(S<0>) = 3.3 V
I: I(V8:p) = 6.494 uA

~~~~~~~~~~~~~~~~~~~~~~~~~~~~~~~~~
Post-Transient Simulation Summary
~~~~~~~~~~~~~~~~~~~~~~~~~~~~~~~~~
   -   To further speed up simulation, consider
          add ++aps on command line
   -   Non-default settings that could significantly slow down simulation
          errpreset = conservative, default moderate
          reltol = 10e-06, default 100e-06 (conservative)
~~~~~~~~~~~~~~~~~~~~~~~~~~~~~~~~~


During simulation, the CPU load for active processors is :
         0 (9.1 %)       1 (10.4 %)      2 (99.8 %)      3 (10.2 %)
         4 (8.9 %)       5 (17.1 %)      6 (45.4 %)      7 (27.2 %)
         8 (6.2 %)       9 (9.5 %)      10 (19.5 %)     11 (14.9 %)
        12 (9.1 %)      13 (30.3 %)     14 (2.9 %)      15 (5.3 %)
        16 (5.8 %)      17 (3.9 %)      18 (24.5 %)     19 (71.8 %)
        20 (5.1 %)      21 (24.0 %)     22 (38.9 %)     23 (100.0 %)
        24 (48.9 %)     25 (34.6 %)     26 (27.6 %)     27 (3.8 %)
        28 (100.0 %)    29 (2.2 %)      30 (22.4 %)     31 (12.1 %)
        32 (4.0 %)      33 (4.4 %)      34 (3.5 %)      35 (38.4 %)
        36 (3.3 %)      37 (31.5 %)     38 (57.2 %)     39 (15.2 %)
        40 (100.0 %)    41 (6.0 %)      42 (3.8 %)      43 (27.7 %)
        44 (6.4 %)      45 (13.4 %)     46 (14.7 %)     47 (3.9 %)
        Total: 1184.1%
Initial condition solution time: CPU = 2.701 ms, elapsed = 2.702 ms.
Intrinsic tran analysis time:    CPU = 447.67 ms, elapsed = 449.182 ms.
Total time required for tran analysis `tran': CPU = 453.181 ms, elapsed = 455.357 ms, util. = 99.5%.
Time accumulated: CPU = 4.00555 s, elapsed = 4.68414 s.
Peak resident memory used = 214 Mbytes.


Notice from spectre during transient analysis `tran', during Monte Carlo analysis `mc1'.
    34 warnings suppressed.

finalTimeOP: writing operating point information to rawfile.

Opening the PSF file ../psf/mc1_separate/006/finalTimeOP.info ...
modelParameter: writing model parameter values to rawfile.

Opening the PSF file ../psf/mc1_separate/006/modelParameter.info ...
element: writing instance parameter values to rawfile.

Opening the PSF file ../psf/mc1_separate/006/element.info ...
outputParameter: writing output parameter values to rawfile.

Opening the PSF file ../psf/mc1_separate/006/outputParameter.info ...
designParamVals: writing netlist parameters to rawfile.

Opening the PSFASCII file ../psf/mc1_separate/006/designParamVals.info ...
primitives: writing primitives to rawfile.

Opening the PSFASCII file ../psf/mc1_separate/006/primitives.info.primitives ...
subckts: writing subcircuits to rawfile.

Opening the PSFASCII file ../psf/mc1_separate/006/subckts.info.subckts ...
    mc1: iteration = 6           (5.05 %), step = 1            (1.01 %)
7   6.06% 

*****************************************************************************************
* 
* INFO: AMS_processOption = C35B4C3
* 
* INFO: Valid Modules  PIP VG5 HIRES
* 
*****************************************************************************************


Notice from spectre during Monte Carlo analysis `mc1'.
    V8: `period' has the unusually large value of 100 s.


***********************************************
Transient Analysis `tran': time = (0 s -> 50 s)
***********************************************

Opening the PSF file ../psf/mc1_separate/007/tran.tran.tran ...

Warning from spectre during check, during IC analysis, during transient analysis `tran', during Monte Carlo analysis `mc1'.
    WARNING (CMI-2943): Parameter checks have been ignored because the valid value for parameter 'trise' could not be found in 'C1'.
    WARNING (CMI-2943): Parameter checks have been ignored because the valid value for parameter 'trise' could not be found in 'I0.R2.CM'.
    WARNING (CMI-2943): Parameter checks have been ignored because the valid value for parameter 'trise' could not be found in 'I0.R2.CS1'.
    WARNING (CMI-2943): Parameter checks have been ignored because the valid value for parameter 'trise' could not be found in 'I0.R2.CS0'.
    WARNING (CMI-2943): Parameter checks have been ignored because the valid value for parameter 'trise' could not be found in 'I0.C3.C1'.
        Further occurrences of this warning will be suppressed.

Convergence achieved in 12 iterations.
DC simulation time: CPU = 2.334 ms, elapsed = 2.33507 ms.
Important parameter values:
    start = 0 s
    outputstart = 0 s
    stop = 50 s
    step = 50 ms
    maxstep = 500 ms
    ic = all
    useprevic = no
    skipdc = no
    reltol = 10e-06
    abstol(V) = 1 uV
    abstol(I) = 1 pA
    temp = 85 C
    tnom = 27 C
    tempeffects = all
    errpreset = conservative
    method = gear2only
    lteratio = 10
    relref = alllocal
    cmin = 0 F
    gmin = 1 pS
    rabsshort = 1 mOhm


Notice from spectre during transient analysis `tran', during Monte Carlo analysis `mc1'.
    Multithreading is disabled due to the size of the design being too small.


Output and IC/nodeset summary:
                 save   8       (current)
                 save   87      (voltage)

    tran: time = 1.352 s      (2.7 %), step = 111.9 ms     (224 m%)
    tran: time = 3.954 s     (7.91 %), step = 339 ms       (678 m%)
    tran: time = 6.608 s     (13.2 %), step = 500 ms          (1 %)
    tran: time = 9.108 s     (18.2 %), step = 500 ms          (1 %)
    tran: time = 11.61 s     (23.2 %), step = 500 ms          (1 %)
    tran: time = 14.11 s     (28.2 %), step = 500 ms          (1 %)
    tran: time = 16.61 s     (33.2 %), step = 500 ms          (1 %)
    tran: time = 19.11 s     (38.2 %), step = 500 ms          (1 %)
    tran: time = 21.61 s     (43.2 %), step = 500 ms          (1 %)
    tran: time = 24.11 s     (48.2 %), step = 500 ms          (1 %)
    tran: time = 26.61 s     (53.2 %), step = 500 ms          (1 %)
    tran: time = 29.11 s     (58.2 %), step = 500 ms          (1 %)
    tran: time = 31.61 s     (63.2 %), step = 500 ms          (1 %)
    tran: time = 34.11 s     (68.2 %), step = 500 ms          (1 %)
    tran: time = 36.61 s     (73.2 %), step = 500 ms          (1 %)
    tran: time = 39.11 s     (78.2 %), step = 500 ms          (1 %)
    tran: time = 41.61 s     (83.2 %), step = 500 ms          (1 %)
    tran: time = 44.11 s     (88.2 %), step = 500 ms          (1 %)
    tran: time = 46.61 s     (93.2 %), step = 500 ms          (1 %)
    tran: time = 49.11 s     (98.2 %), step = 500 ms          (1 %)
Number of accepted tran steps =             738

Maximum value achieved for any signal of each quantity: 
V: V(S<0>) = 3.3 V
I: I(V8:p) = 6.423 uA

~~~~~~~~~~~~~~~~~~~~~~~~~~~~~~~~~
Post-Transient Simulation Summary
~~~~~~~~~~~~~~~~~~~~~~~~~~~~~~~~~
   -   To further speed up simulation, consider
          add ++aps on command line
   -   Non-default settings that could significantly slow down simulation
          errpreset = conservative, default moderate
          reltol = 10e-06, default 100e-06 (conservative)
~~~~~~~~~~~~~~~~~~~~~~~~~~~~~~~~~


During simulation, the CPU load for active processors is :
         0 (8.4 %)       1 (9.8 %)       2 (99.8 %)      3 (10.0 %)
         4 (8.2 %)       5 (16.6 %)      6 (43.3 %)      7 (28.5 %)
         8 (11.2 %)      9 (8.8 %)      10 (17.8 %)     11 (13.6 %)
        12 (9.7 %)      13 (33.9 %)     14 (3.6 %)      15 (6.0 %)
        16 (7.2 %)      17 (3.8 %)      18 (23.5 %)     19 (74.2 %)
        20 (5.4 %)      21 (21.9 %)     22 (38.4 %)     23 (100.0 %)
        24 (53.3 %)     25 (31.6 %)     26 (25.0 %)     27 (3.8 %)
        28 (100.0 %)    29 (2.0 %)      30 (20.8 %)     31 (11.1 %)
        32 (3.8 %)      33 (4.8 %)      34 (11.9 %)     35 (34.9 %)
        36 (3.6 %)      37 (30.2 %)     38 (51.9 %)     39 (19.8 %)
        40 (100.0 %)    41 (5.4 %)      42 (3.8 %)      43 (26.9 %)
        44 (6.2 %)      45 (21.5 %)     46 (13.9 %)     47 (3.6 %)
        Total: 1193.3%
Initial condition solution time: CPU = 2.387 ms, elapsed = 2.38895 ms.
Intrinsic tran analysis time:    CPU = 437.098 ms, elapsed = 438.753 ms.
Total time required for tran analysis `tran': CPU = 441.789 ms, elapsed = 444.252 ms, util. = 99.4%.
Time accumulated: CPU = 4.48695 s, elapsed = 5.17943 s.
Peak resident memory used = 214 Mbytes.


Notice from spectre during transient analysis `tran', during Monte Carlo analysis `mc1'.
    34 warnings suppressed.

finalTimeOP: writing operating point information to rawfile.

Opening the PSF file ../psf/mc1_separate/007/finalTimeOP.info ...
modelParameter: writing model parameter values to rawfile.

Opening the PSF file ../psf/mc1_separate/007/modelParameter.info ...
element: writing instance parameter values to rawfile.

Opening the PSF file ../psf/mc1_separate/007/element.info ...
outputParameter: writing output parameter values to rawfile.

Opening the PSF file ../psf/mc1_separate/007/outputParameter.info ...
designParamVals: writing netlist parameters to rawfile.

Opening the PSFASCII file ../psf/mc1_separate/007/designParamVals.info ...
primitives: writing primitives to rawfile.

Opening the PSFASCII file ../psf/mc1_separate/007/primitives.info.primitives ...
subckts: writing subcircuits to rawfile.

Opening the PSFASCII file ../psf/mc1_separate/007/subckts.info.subckts ...
    mc1: iteration = 7           (6.06 %), step = 1            (1.01 %)
8   7.07% 

*****************************************************************************************
* 
* INFO: AMS_processOption = C35B4C3
* 
* INFO: Valid Modules  PIP VG5 HIRES
* 
*****************************************************************************************


Notice from spectre during Monte Carlo analysis `mc1'.
    V8: `period' has the unusually large value of 100 s.


***********************************************
Transient Analysis `tran': time = (0 s -> 50 s)
***********************************************

Opening the PSF file ../psf/mc1_separate/008/tran.tran.tran ...

Warning from spectre during check, during IC analysis, during transient analysis `tran', during Monte Carlo analysis `mc1'.
    WARNING (CMI-2943): Parameter checks have been ignored because the valid value for parameter 'trise' could not be found in 'C1'.
    WARNING (CMI-2943): Parameter checks have been ignored because the valid value for parameter 'trise' could not be found in 'I0.R2.CM'.
    WARNING (CMI-2943): Parameter checks have been ignored because the valid value for parameter 'trise' could not be found in 'I0.R2.CS1'.
    WARNING (CMI-2943): Parameter checks have been ignored because the valid value for parameter 'trise' could not be found in 'I0.R2.CS0'.
    WARNING (CMI-2943): Parameter checks have been ignored because the valid value for parameter 'trise' could not be found in 'I0.C3.C1'.
        Further occurrences of this warning will be suppressed.

Convergence achieved in 12 iterations.
DC simulation time: CPU = 2.337 ms, elapsed = 2.33698 ms.
Important parameter values:
    start = 0 s
    outputstart = 0 s
    stop = 50 s
    step = 50 ms
    maxstep = 500 ms
    ic = all
    useprevic = no
    skipdc = no
    reltol = 10e-06
    abstol(V) = 1 uV
    abstol(I) = 1 pA
    temp = 85 C
    tnom = 27 C
    tempeffects = all
    errpreset = conservative
    method = gear2only
    lteratio = 10
    relref = alllocal
    cmin = 0 F
    gmin = 1 pS
    rabsshort = 1 mOhm


Notice from spectre during transient analysis `tran', during Monte Carlo analysis `mc1'.
    Multithreading is disabled due to the size of the design being too small.


Output and IC/nodeset summary:
                 save   8       (current)
                 save   87      (voltage)

    tran: time = 1.361 s     (2.72 %), step = 111.7 ms     (223 m%)
    tran: time = 3.961 s     (7.92 %), step = 338.8 ms     (678 m%)
    tran: time = 6.615 s     (13.2 %), step = 500 ms          (1 %)
    tran: time = 9.115 s     (18.2 %), step = 500 ms          (1 %)
    tran: time = 11.62 s     (23.2 %), step = 500 ms          (1 %)
    tran: time = 14.12 s     (28.2 %), step = 500 ms          (1 %)
    tran: time = 16.62 s     (33.2 %), step = 500 ms          (1 %)
    tran: time = 19.12 s     (38.2 %), step = 500 ms          (1 %)
    tran: time = 21.62 s     (43.2 %), step = 500 ms          (1 %)
    tran: time = 24.12 s     (48.2 %), step = 500 ms          (1 %)
    tran: time = 26.62 s     (53.2 %), step = 500 ms          (1 %)
    tran: time = 29.12 s     (58.2 %), step = 500 ms          (1 %)
    tran: time = 31.62 s     (63.2 %), step = 500 ms          (1 %)
    tran: time = 34.12 s     (68.2 %), step = 500 ms          (1 %)
    tran: time = 36.62 s     (73.2 %), step = 500 ms          (1 %)
    tran: time = 39.12 s     (78.2 %), step = 500 ms          (1 %)
    tran: time = 41.62 s     (83.2 %), step = 500 ms          (1 %)
    tran: time = 44.12 s     (88.2 %), step = 500 ms          (1 %)
    tran: time = 46.62 s     (93.2 %), step = 500 ms          (1 %)
    tran: time = 49.12 s     (98.2 %), step = 500 ms          (1 %)
Number of accepted tran steps =             742

Maximum value achieved for any signal of each quantity: 
V: V(S<0>) = 3.3 V
I: I(V8:p) = 6.453 uA

~~~~~~~~~~~~~~~~~~~~~~~~~~~~~~~~~
Post-Transient Simulation Summary
~~~~~~~~~~~~~~~~~~~~~~~~~~~~~~~~~
   -   To further speed up simulation, consider
          add ++aps on command line
   -   Non-default settings that could significantly slow down simulation
          errpreset = conservative, default moderate
          reltol = 10e-06, default 100e-06 (conservative)
~~~~~~~~~~~~~~~~~~~~~~~~~~~~~~~~~


During simulation, the CPU load for active processors is :
         0 (8.2 %)       1 (9.6 %)       2 (99.8 %)      3 (10.6 %)
         4 (7.9 %)       5 (15.8 %)      6 (41.2 %)      7 (26.7 %)
         8 (19.3 %)      9 (9.3 %)      10 (17.7 %)     11 (12.6 %)
        12 (9.5 %)      13 (38.3 %)     14 (3.6 %)      15 (6.1 %)
        16 (9.2 %)      17 (4.0 %)      18 (26.8 %)     19 (76.3 %)
        20 (5.3 %)      21 (20.0 %)     22 (35.3 %)     23 (94.6 %)
        24 (57.2 %)     25 (29.1 %)     26 (23.0 %)     27 (3.6 %)
        28 (100.0 %)    29 (2.0 %)      30 (19.0 %)     31 (10.6 %)
        32 (3.5 %)      33 (4.4 %)      34 (19.5 %)     35 (32.0 %)
        36 (3.4 %)      37 (36.3 %)     38 (49.2 %)     39 (18.8 %)
        40 (100.0 %)    41 (4.9 %)      42 (3.8 %)      43 (24.7 %)
        44 (5.8 %)      45 (28.3 %)     46 (13.2 %)     47 (3.4 %)
        Total: 1203.6%
Initial condition solution time: CPU = 2.376 ms, elapsed = 2.37703 ms.
Intrinsic tran analysis time:    CPU = 440.62 ms, elapsed = 442.152 ms.
Total time required for tran analysis `tran': CPU = 445.325 ms, elapsed = 447.5 ms, util. = 99.5%.
Time accumulated: CPU = 4.97209 s, elapsed = 5.67894 s.
Peak resident memory used = 214 Mbytes.


Notice from spectre during transient analysis `tran', during Monte Carlo analysis `mc1'.
    34 warnings suppressed.

finalTimeOP: writing operating point information to rawfile.

Opening the PSF file ../psf/mc1_separate/008/finalTimeOP.info ...
modelParameter: writing model parameter values to rawfile.

Opening the PSF file ../psf/mc1_separate/008/modelParameter.info ...
element: writing instance parameter values to rawfile.

Opening the PSF file ../psf/mc1_separate/008/element.info ...
outputParameter: writing output parameter values to rawfile.

Opening the PSF file ../psf/mc1_separate/008/outputParameter.info ...
designParamVals: writing netlist parameters to rawfile.

Opening the PSFASCII file ../psf/mc1_separate/008/designParamVals.info ...
primitives: writing primitives to rawfile.

Opening the PSFASCII file ../psf/mc1_separate/008/primitives.info.primitives ...
subckts: writing subcircuits to rawfile.

Opening the PSFASCII file ../psf/mc1_separate/008/subckts.info.subckts ...
    mc1: iteration = 8           (7.07 %), step = 1            (1.01 %)
9   8.08% 

*****************************************************************************************
* 
* INFO: AMS_processOption = C35B4C3
* 
* INFO: Valid Modules  PIP VG5 HIRES
* 
*****************************************************************************************


Notice from spectre during Monte Carlo analysis `mc1'.
    V8: `period' has the unusually large value of 100 s.


***********************************************
Transient Analysis `tran': time = (0 s -> 50 s)
***********************************************

Opening the PSF file ../psf/mc1_separate/009/tran.tran.tran ...

Warning from spectre during check, during IC analysis, during transient analysis `tran', during Monte Carlo analysis `mc1'.
    WARNING (CMI-2943): Parameter checks have been ignored because the valid value for parameter 'trise' could not be found in 'C1'.
    WARNING (CMI-2943): Parameter checks have been ignored because the valid value for parameter 'trise' could not be found in 'I0.R2.CM'.
    WARNING (CMI-2943): Parameter checks have been ignored because the valid value for parameter 'trise' could not be found in 'I0.R2.CS1'.
    WARNING (CMI-2943): Parameter checks have been ignored because the valid value for parameter 'trise' could not be found in 'I0.R2.CS0'.
    WARNING (CMI-2943): Parameter checks have been ignored because the valid value for parameter 'trise' could not be found in 'I0.C3.C1'.
        Further occurrences of this warning will be suppressed.

Convergence achieved in 12 iterations.
DC simulation time: CPU = 2.437 ms, elapsed = 2.43807 ms.
Important parameter values:
    start = 0 s
    outputstart = 0 s
    stop = 50 s
    step = 50 ms
    maxstep = 500 ms
    ic = all
    useprevic = no
    skipdc = no
    reltol = 10e-06
    abstol(V) = 1 uV
    abstol(I) = 1 pA
    temp = 85 C
    tnom = 27 C
    tempeffects = all
    errpreset = conservative
    method = gear2only
    lteratio = 10
    relref = alllocal
    cmin = 0 F
    gmin = 1 pS
    rabsshort = 1 mOhm


Notice from spectre during transient analysis `tran', during Monte Carlo analysis `mc1'.
    Multithreading is disabled due to the size of the design being too small.


Output and IC/nodeset summary:
                 save   8       (current)
                 save   87      (voltage)

    tran: time = 1.286 s     (2.57 %), step = 101.3 ms     (203 m%)
    tran: time = 3.998 s        (8 %), step = 339.1 ms     (678 m%)
    tran: time = 6.654 s     (13.3 %), step = 500 ms          (1 %)
    tran: time = 9.154 s     (18.3 %), step = 500 ms          (1 %)
    tran: time = 11.65 s     (23.3 %), step = 500 ms          (1 %)
    tran: time = 14.15 s     (28.3 %), step = 500 ms          (1 %)
    tran: time = 16.65 s     (33.3 %), step = 500 ms          (1 %)
    tran: time = 19.15 s     (38.3 %), step = 500 ms          (1 %)
    tran: time = 21.65 s     (43.3 %), step = 500 ms          (1 %)
    tran: time = 24.15 s     (48.3 %), step = 500 ms          (1 %)
    tran: time = 26.65 s     (53.3 %), step = 500 ms          (1 %)
    tran: time = 29.15 s     (58.3 %), step = 500 ms          (1 %)
    tran: time = 31.65 s     (63.3 %), step = 500 ms          (1 %)
    tran: time = 34.15 s     (68.3 %), step = 500 ms          (1 %)
    tran: time = 36.65 s     (73.3 %), step = 500 ms          (1 %)
    tran: time = 39.15 s     (78.3 %), step = 500 ms          (1 %)
    tran: time = 41.65 s     (83.3 %), step = 500 ms          (1 %)
    tran: time = 44.15 s     (88.3 %), step = 500 ms          (1 %)
    tran: time = 46.65 s     (93.3 %), step = 500 ms          (1 %)
    tran: time = 49.15 s     (98.3 %), step = 500 ms          (1 %)
Number of accepted tran steps =             744

Maximum value achieved for any signal of each quantity: 
V: V(S<0>) = 3.3 V
I: I(V8:p) = 6.33 uA

~~~~~~~~~~~~~~~~~~~~~~~~~~~~~~~~~
Post-Transient Simulation Summary
~~~~~~~~~~~~~~~~~~~~~~~~~~~~~~~~~
   -   To further speed up simulation, consider
          add ++aps on command line
   -   Non-default settings that could significantly slow down simulation
          errpreset = conservative, default moderate
          reltol = 10e-06, default 100e-06 (conservative)
~~~~~~~~~~~~~~~~~~~~~~~~~~~~~~~~~


During simulation, the CPU load for active processors is :
         0 (7.7 %)       1 (9.0 %)       2 (99.8 %)      3 (10.0 %)
         4 (7.9 %)       5 (22.4 %)      6 (38.1 %)      7 (25.0 %)
         8 (25.8 %)      9 (9.8 %)      10 (16.6 %)     11 (12.1 %)
        12 (10.2 %)     13 (35.4 %)     14 (3.5 %)      15 (6.1 %)
        16 (9.5 %)      17 (5.2 %)      18 (32.9 %)     19 (71.1 %)
        20 (12.3 %)     21 (18.5 %)     22 (32.8 %)     23 (87.4 %)
        24 (60.5 %)     25 (28.1 %)     26 (26.2 %)     27 (3.7 %)
        28 (100.0 %)    29 (2.0 %)      30 (17.8 %)     31 (10.1 %)
        32 (3.2 %)      33 (4.7 %)      34 (20.8 %)     35 (30.0 %)
        36 (3.5 %)      37 (40.9 %)     38 (45.4 %)     39 (17.4 %)
        40 (100.0 %)    41 (4.7 %)      42 (4.8 %)      43 (23.3 %)
        44 (5.5 %)      45 (26.3 %)     46 (19.9 %)     47 (3.5 %)
        Total: 1211.6%
Initial condition solution time: CPU = 2.476 ms, elapsed = 2.47788 ms.
Intrinsic tran analysis time:    CPU = 439.484 ms, elapsed = 440.766 ms.
Total time required for tran analysis `tran': CPU = 444.487 ms, elapsed = 446.358 ms, util. = 99.6%.
Time accumulated: CPU = 5.45637 s, elapsed = 6.17709 s.
Peak resident memory used = 214 Mbytes.


Notice from spectre during transient analysis `tran', during Monte Carlo analysis `mc1'.
    34 warnings suppressed.

finalTimeOP: writing operating point information to rawfile.

Opening the PSF file ../psf/mc1_separate/009/finalTimeOP.info ...
modelParameter: writing model parameter values to rawfile.

Opening the PSF file ../psf/mc1_separate/009/modelParameter.info ...
element: writing instance parameter values to rawfile.

Opening the PSF file ../psf/mc1_separate/009/element.info ...
outputParameter: writing output parameter values to rawfile.

Opening the PSF file ../psf/mc1_separate/009/outputParameter.info ...
designParamVals: writing netlist parameters to rawfile.

Opening the PSFASCII file ../psf/mc1_separate/009/designParamVals.info ...
primitives: writing primitives to rawfile.

Opening the PSFASCII file ../psf/mc1_separate/009/primitives.info.primitives ...
subckts: writing subcircuits to rawfile.

Opening the PSFASCII file ../psf/mc1_separate/009/subckts.info.subckts ...
    mc1: iteration = 9           (8.08 %), step = 1            (1.01 %)
10   9.09% 

*****************************************************************************************
* 
* INFO: AMS_processOption = C35B4C3
* 
* INFO: Valid Modules  PIP VG5 HIRES
* 
*****************************************************************************************


Notice from spectre during Monte Carlo analysis `mc1'.
    V8: `period' has the unusually large value of 100 s.


***********************************************
Transient Analysis `tran': time = (0 s -> 50 s)
***********************************************

Opening the PSF file ../psf/mc1_separate/010/tran.tran.tran ...

Warning from spectre during check, during IC analysis, during transient analysis `tran', during Monte Carlo analysis `mc1'.
    WARNING (CMI-2943): Parameter checks have been ignored because the valid value for parameter 'trise' could not be found in 'C1'.
    WARNING (CMI-2943): Parameter checks have been ignored because the valid value for parameter 'trise' could not be found in 'I0.R2.CM'.
    WARNING (CMI-2943): Parameter checks have been ignored because the valid value for parameter 'trise' could not be found in 'I0.R2.CS1'.
    WARNING (CMI-2943): Parameter checks have been ignored because the valid value for parameter 'trise' could not be found in 'I0.R2.CS0'.
    WARNING (CMI-2943): Parameter checks have been ignored because the valid value for parameter 'trise' could not be found in 'I0.C3.C1'.
        Further occurrences of this warning will be suppressed.

Convergence achieved in 12 iterations.
DC simulation time: CPU = 2.44 ms, elapsed = 2.44117 ms.
Important parameter values:
    start = 0 s
    outputstart = 0 s
    stop = 50 s
    step = 50 ms
    maxstep = 500 ms
    ic = all
    useprevic = no
    skipdc = no
    reltol = 10e-06
    abstol(V) = 1 uV
    abstol(I) = 1 pA
    temp = 85 C
    tnom = 27 C
    tempeffects = all
    errpreset = conservative
    method = gear2only
    lteratio = 10
    relref = alllocal
    cmin = 0 F
    gmin = 1 pS
    rabsshort = 1 mOhm


Notice from spectre during transient analysis `tran', during Monte Carlo analysis `mc1'.
    Multithreading is disabled due to the size of the design being too small.


Output and IC/nodeset summary:
                 save   8       (current)
                 save   87      (voltage)

    tran: time = 1.333 s     (2.67 %), step = 113 ms       (226 m%)
    tran: time = 3.957 s     (7.91 %), step = 340.9 ms     (682 m%)
    tran: time = 6.614 s     (13.2 %), step = 500 ms          (1 %)
    tran: time = 9.114 s     (18.2 %), step = 500 ms          (1 %)
    tran: time = 11.61 s     (23.2 %), step = 500 ms          (1 %)
    tran: time = 14.11 s     (28.2 %), step = 500 ms          (1 %)
    tran: time = 16.61 s     (33.2 %), step = 500 ms          (1 %)
    tran: time = 19.11 s     (38.2 %), step = 500 ms          (1 %)
    tran: time = 21.61 s     (43.2 %), step = 500 ms          (1 %)
    tran: time = 24.11 s     (48.2 %), step = 500 ms          (1 %)
    tran: time = 26.61 s     (53.2 %), step = 500 ms          (1 %)
    tran: time = 29.11 s     (58.2 %), step = 500 ms          (1 %)
    tran: time = 31.61 s     (63.2 %), step = 500 ms          (1 %)
[...]


***********************************************
Transient Analysis `tran': time = (0 s -> 50 s)
***********************************************

Opening the PSF file ../psf/mc1_separate/098/tran.tran.tran ...

Warning from spectre during check, during IC analysis, during transient analysis `tran', during Monte Carlo analysis `mc1'.
    WARNING (CMI-2943): Parameter checks have been ignored because the valid value for parameter 'trise' could not be found in 'C1'.
    WARNING (CMI-2943): Parameter checks have been ignored because the valid value for parameter 'trise' could not be found in 'I0.R2.CM'.
    WARNING (CMI-2943): Parameter checks have been ignored because the valid value for parameter 'trise' could not be found in 'I0.R2.CS1'.
    WARNING (CMI-2943): Parameter checks have been ignored because the valid value for parameter 'trise' could not be found in 'I0.R2.CS0'.
    WARNING (CMI-2943): Parameter checks have been ignored because the valid value for parameter 'trise' could not be found in 'I0.C3.C1'.
        Further occurrences of this warning will be suppressed.

Convergence achieved in 12 iterations.
DC simulation time: CPU = 2.587 ms, elapsed = 2.58803 ms.
Important parameter values:
    start = 0 s
    outputstart = 0 s
    stop = 50 s
    step = 50 ms
    maxstep = 500 ms
    ic = all
    useprevic = no
    skipdc = no
    reltol = 10e-06
    abstol(V) = 1 uV
    abstol(I) = 1 pA
    temp = 85 C
    tnom = 27 C
    tempeffects = all
    errpreset = conservative
    method = gear2only
    lteratio = 10
    relref = alllocal
    cmin = 0 F
    gmin = 1 pS
    rabsshort = 1 mOhm


Notice from spectre during transient analysis `tran', during Monte Carlo analysis `mc1'.
    Multithreading is disabled due to the size of the design being too small.


Output and IC/nodeset summary:
                 save   8       (current)
                 save   87      (voltage)

    tran: time = 1.268 s     (2.54 %), step = 104.4 ms     (209 m%)
    tran: time = 4.055 s     (8.11 %), step = 347.1 ms     (694 m%)
    tran: time = 6.746 s     (13.5 %), step = 500 ms          (1 %)
    tran: time = 9.246 s     (18.5 %), step = 500 ms          (1 %)
    tran: time = 11.75 s     (23.5 %), step = 500 ms          (1 %)
    tran: time = 14.25 s     (28.5 %), step = 500 ms          (1 %)
    tran: time = 16.75 s     (33.5 %), step = 500 ms          (1 %)
    tran: time = 19.25 s     (38.5 %), step = 500 ms          (1 %)
    tran: time = 21.75 s     (43.5 %), step = 500 ms          (1 %)
    tran: time = 24.25 s     (48.5 %), step = 500 ms          (1 %)
    tran: time = 26.75 s     (53.5 %), step = 500 ms          (1 %)
    tran: time = 29.25 s     (58.5 %), step = 500 ms          (1 %)
    tran: time = 31.75 s     (63.5 %), step = 500 ms          (1 %)
    tran: time = 34.25 s     (68.5 %), step = 500 ms          (1 %)
    tran: time = 36.75 s     (73.5 %), step = 500 ms          (1 %)
    tran: time = 39.25 s     (78.5 %), step = 500 ms          (1 %)
    tran: time = 41.75 s     (83.5 %), step = 500 ms          (1 %)
    tran: time = 44.25 s     (88.5 %), step = 500 ms          (1 %)
    tran: time = 46.75 s     (93.5 %), step = 500 ms          (1 %)
    tran: time = 49.25 s     (98.5 %), step = 500 ms          (1 %)
Number of accepted tran steps =             745

Maximum value achieved for any signal of each quantity: 
V: V(S<0>) = 3.3 V
I: I(V8:p) = 6.343 uA

~~~~~~~~~~~~~~~~~~~~~~~~~~~~~~~~~
Post-Transient Simulation Summary
~~~~~~~~~~~~~~~~~~~~~~~~~~~~~~~~~
   -   To further speed up simulation, consider
          add ++aps on command line
   -   Non-default settings that could significantly slow down simulation
          errpreset = conservative, default moderate
          reltol = 10e-06, default 100e-06 (conservative)
~~~~~~~~~~~~~~~~~~~~~~~~~~~~~~~~~


During simulation, the CPU load for active processors is :
         0 (28.5 %)      1 (19.9 %)      2 (48.6 %)      3 (28.1 %)
         4 (20.5 %)      5 (24.9 %)      6 (49.4 %)      7 (20.1 %)
         8 (35.2 %)      9 (15.3 %)     10 (12.4 %)     11 (28.1 %)
        12 (27.8 %)     13 (24.4 %)     14 (10.3 %)     15 (20.4 %)
        16 (25.1 %)     17 (14.8 %)     18 (24.9 %)     19 (29.1 %)
        20 (14.9 %)     21 (37.7 %)     22 (30.5 %)     23 (31.5 %)
        24 (32.3 %)     25 (14.7 %)     26 (15.0 %)     27 (8.9 %)
        28 (99.9 %)     29 (15.6 %)     30 (18.3 %)     31 (37.1 %)
        32 (10.5 %)     33 (24.1 %)     34 (21.1 %)     35 (18.2 %)
        36 (30.8 %)     37 (38.7 %)     38 (24.0 %)     39 (23.9 %)
        40 (100.0 %)    41 (8.4 %)      42 (22.4 %)     43 (25.0 %)
        44 (17.8 %)     45 (17.1 %)     46 (26.6 %)     47 (21.3 %)
        Total: 1294.4%
Initial condition solution time: CPU = 2.626 ms, elapsed = 2.62785 ms.
Intrinsic tran analysis time:    CPU = 454.58 ms, elapsed = 456.387 ms.
Total time required for tran analysis `tran': CPU = 460.029 ms, elapsed = 462.462 ms, util. = 99.5%.
Time accumulated: CPU = 49.2547 s, elapsed = 51.2266 s.
Peak resident memory used = 214 Mbytes.


Notice from spectre during transient analysis `tran', during Monte Carlo analysis `mc1'.
    34 warnings suppressed.

finalTimeOP: writing operating point information to rawfile.

Opening the PSF file ../psf/mc1_separate/098/finalTimeOP.info ...
modelParameter: writing model parameter values to rawfile.

Opening the PSF file ../psf/mc1_separate/098/modelParameter.info ...
element: writing instance parameter values to rawfile.

Opening the PSF file ../psf/mc1_separate/098/element.info ...
outputParameter: writing output parameter values to rawfile.

Opening the PSF file ../psf/mc1_separate/098/outputParameter.info ...
designParamVals: writing netlist parameters to rawfile.

Opening the PSFASCII file ../psf/mc1_separate/098/designParamVals.info ...
primitives: writing primitives to rawfile.

Opening the PSFASCII file ../psf/mc1_separate/098/primitives.info.primitives ...
subckts: writing subcircuits to rawfile.

Opening the PSFASCII file ../psf/mc1_separate/098/subckts.info.subckts ...
    mc1: iteration = 98            (98 %), step = 1            (1.01 %)
99  98.99% 

*****************************************************************************************
* 
* INFO: AMS_processOption = C35B4C3
* 
* INFO: Valid Modules  PIP VG5 HIRES
* 
*****************************************************************************************


Notice from spectre during Monte Carlo analysis `mc1'.
    V8: `period' has the unusually large value of 100 s.


***********************************************
Transient Analysis `tran': time = (0 s -> 50 s)
***********************************************

Opening the PSF file ../psf/mc1_separate/099/tran.tran.tran ...

Warning from spectre during check, during IC analysis, during transient analysis `tran', during Monte Carlo analysis `mc1'.
    WARNING (CMI-2943): Parameter checks have been ignored because the valid value for parameter 'trise' could not be found in 'C1'.
    WARNING (CMI-2943): Parameter checks have been ignored because the valid value for parameter 'trise' could not be found in 'I0.R2.CM'.
    WARNING (CMI-2943): Parameter checks have been ignored because the valid value for parameter 'trise' could not be found in 'I0.R2.CS1'.
    WARNING (CMI-2943): Parameter checks have been ignored because the valid value for parameter 'trise' could not be found in 'I0.R2.CS0'.
    WARNING (CMI-2943): Parameter checks have been ignored because the valid value for parameter 'trise' could not be found in 'I0.C3.C1'.
        Further occurrences of this warning will be suppressed.

Convergence achieved in 12 iterations.
DC simulation time: CPU = 2.63 ms, elapsed = 2.63095 ms.
Important parameter values:
    start = 0 s
    outputstart = 0 s
    stop = 50 s
    step = 50 ms
    maxstep = 500 ms
    ic = all
    useprevic = no
    skipdc = no
    reltol = 10e-06
    abstol(V) = 1 uV
    abstol(I) = 1 pA
    temp = 85 C
    tnom = 27 C
    tempeffects = all
    errpreset = conservative
    method = gear2only
    lteratio = 10
    relref = alllocal
    cmin = 0 F
    gmin = 1 pS
    rabsshort = 1 mOhm


Notice from spectre during transient analysis `tran', during Monte Carlo analysis `mc1'.
    Multithreading is disabled due to the size of the design being too small.


Output and IC/nodeset summary:
                 save   8       (current)
                 save   87      (voltage)

    tran: time = 1.347 s     (2.69 %), step = 113.1 ms     (226 m%)
    tran: time = 3.974 s     (7.95 %), step = 341.7 ms     (683 m%)
    tran: time = 6.64 s      (13.3 %), step = 500 ms          (1 %)
    tran: time = 9.14 s      (18.3 %), step = 500 ms          (1 %)
    tran: time = 11.64 s     (23.3 %), step = 500 ms          (1 %)
    tran: time = 14.14 s     (28.3 %), step = 500 ms          (1 %)
    tran: time = 16.64 s     (33.3 %), step = 500 ms          (1 %)
    tran: time = 19.14 s     (38.3 %), step = 500 ms          (1 %)
    tran: time = 21.64 s     (43.3 %), step = 500 ms          (1 %)
    tran: time = 24.14 s     (48.3 %), step = 500 ms          (1 %)
    tran: time = 26.64 s     (53.3 %), step = 500 ms          (1 %)
    tran: time = 29.14 s     (58.3 %), step = 500 ms          (1 %)
    tran: time = 31.64 s     (63.3 %), step = 500 ms          (1 %)
    tran: time = 34.14 s     (68.3 %), step = 500 ms          (1 %)
    tran: time = 36.64 s     (73.3 %), step = 500 ms          (1 %)
    tran: time = 39.14 s     (78.3 %), step = 500 ms          (1 %)
    tran: time = 41.64 s     (83.3 %), step = 500 ms          (1 %)
    tran: time = 44.14 s     (88.3 %), step = 500 ms          (1 %)
    tran: time = 46.64 s     (93.3 %), step = 500 ms          (1 %)
    tran: time = 49.14 s     (98.3 %), step = 500 ms          (1 %)
Number of accepted tran steps =             739

Maximum value achieved for any signal of each quantity: 
V: V(vout_filt) = 3.3 V
I: I(V8:p) = 6.305 uA

~~~~~~~~~~~~~~~~~~~~~~~~~~~~~~~~~
Post-Transient Simulation Summary
~~~~~~~~~~~~~~~~~~~~~~~~~~~~~~~~~
   -   To further speed up simulation, consider
          add ++aps on command line
   -   Non-default settings that could significantly slow down simulation
          errpreset = conservative, default moderate
          reltol = 10e-06, default 100e-06 (conservative)
~~~~~~~~~~~~~~~~~~~~~~~~~~~~~~~~~


During simulation, the CPU load for active processors is :
         0 (29.2 %)      1 (19.8 %)      2 (48.2 %)      3 (27.9 %)
         4 (20.4 %)      5 (24.6 %)      6 (49.0 %)      7 (19.9 %)
         8 (34.9 %)      9 (15.4 %)     10 (13.3 %)     11 (27.8 %)
        12 (28.5 %)     13 (25.2 %)     14 (10.2 %)     15 (20.4 %)
        16 (24.8 %)     17 (14.7 %)     18 (24.6 %)     19 (28.9 %)
        20 (15.7 %)     21 (37.4 %)     22 (30.3 %)     23 (31.2 %)
        24 (32.2 %)     25 (14.9 %)     26 (14.9 %)     27 (8.9 %)
        28 (99.9 %)     29 (15.5 %)     30 (18.2 %)     31 (37.0 %)
        32 (10.5 %)     33 (24.0 %)     34 (21.0 %)     35 (18.1 %)
        36 (31.5 %)     37 (38.3 %)     38 (24.7 %)     39 (23.7 %)
        40 (100.0 %)    41 (8.5 %)      42 (22.2 %)     43 (24.7 %)
        44 (17.7 %)     45 (16.9 %)     46 (26.3 %)     47 (21.2 %)
        Total: 1292.9%
Initial condition solution time: CPU = 2.718 ms, elapsed = 2.71988 ms.
Intrinsic tran analysis time:    CPU = 448.958 ms, elapsed = 450.666 ms.
Total time required for tran analysis `tran': CPU = 454.401 ms, elapsed = 456.852 ms, util. = 99.5%.
Time accumulated: CPU = 49.7537 s, elapsed = 51.7397 s.
Peak resident memory used = 214 Mbytes.


Notice from spectre during transient analysis `tran', during Monte Carlo analysis `mc1'.
    34 warnings suppressed.

finalTimeOP: writing operating point information to rawfile.

Opening the PSF file ../psf/mc1_separate/099/finalTimeOP.info ...
modelParameter: writing model parameter values to rawfile.

Opening the PSF file ../psf/mc1_separate/099/modelParameter.info ...
element: writing instance parameter values to rawfile.

Opening the PSF file ../psf/mc1_separate/099/element.info ...
outputParameter: writing output parameter values to rawfile.

Opening the PSF file ../psf/mc1_separate/099/outputParameter.info ...
designParamVals: writing netlist parameters to rawfile.

Opening the PSFASCII file ../psf/mc1_separate/099/designParamVals.info ...
primitives: writing primitives to rawfile.

Opening the PSFASCII file ../psf/mc1_separate/099/primitives.info.primitives ...
subckts: writing subcircuits to rawfile.

Opening the PSFASCII file ../psf/mc1_separate/099/subckts.info.subckts ...
    mc1: iteration = 99            (99 %), step = 1            (1.01 %)
100 100.00% 

*****************************************************************************************
* 
* INFO: AMS_processOption = C35B4C3
* 
* INFO: Valid Modules  PIP VG5 HIRES
* 
*****************************************************************************************


Notice from spectre during Monte Carlo analysis `mc1'.
    V8: `period' has the unusually large value of 100 s.


***********************************************
Transient Analysis `tran': time = (0 s -> 50 s)
***********************************************

Opening the PSF file ../psf/mc1_separate/100/tran.tran.tran ...

Warning from spectre during check, during IC analysis, during transient analysis `tran', during Monte Carlo analysis `mc1'.
    WARNING (CMI-2943): Parameter checks have been ignored because the valid value for parameter 'trise' could not be found in 'C1'.
    WARNING (CMI-2943): Parameter checks have been ignored because the valid value for parameter 'trise' could not be found in 'I0.R2.CM'.
    WARNING (CMI-2943): Parameter checks have been ignored because the valid value for parameter 'trise' could not be found in 'I0.R2.CS1'.
    WARNING (CMI-2943): Parameter checks have been ignored because the valid value for parameter 'trise' could not be found in 'I0.R2.CS0'.
    WARNING (CMI-2943): Parameter checks have been ignored because the valid value for parameter 'trise' could not be found in 'I0.C3.C1'.
        Further occurrences of this warning will be suppressed.

Convergence achieved in 12 iterations.
DC simulation time: CPU = 2.798 ms, elapsed = 2.79903 ms.
Important parameter values:
    start = 0 s
    outputstart = 0 s
    stop = 50 s
    step = 50 ms
    maxstep = 500 ms
    ic = all
    useprevic = no
    skipdc = no
    reltol = 10e-06
    abstol(V) = 1 uV
    abstol(I) = 1 pA
    temp = 85 C
    tnom = 27 C
    tempeffects = all
    errpreset = conservative
    method = gear2only
    lteratio = 10
    relref = alllocal
    cmin = 0 F
    gmin = 1 pS
    rabsshort = 1 mOhm


Notice from spectre during transient analysis `tran', during Monte Carlo analysis `mc1'.
    Multithreading is disabled due to the size of the design being too small.


Output and IC/nodeset summary:
                 save   8       (current)
                 save   87      (voltage)

    tran: time = 1.281 s     (2.56 %), step = 106.7 ms     (213 m%)
    tran: time = 3.768 s     (7.54 %), step = 324.9 ms     (650 m%)
    tran: time = 6.34 s      (12.7 %), step = 500 ms          (1 %)
    tran: time = 8.84 s      (17.7 %), step = 500 ms          (1 %)
    tran: time = 11.34 s     (22.7 %), step = 500 ms          (1 %)
    tran: time = 13.84 s     (27.7 %), step = 500 ms          (1 %)
    tran: time = 16.34 s     (32.7 %), step = 500 ms          (1 %)
    tran: time = 18.84 s     (37.7 %), step = 500 ms          (1 %)
    tran: time = 21.34 s     (42.7 %), step = 500 ms          (1 %)
    tran: time = 23.84 s     (47.7 %), step = 500 ms          (1 %)
    tran: time = 26.34 s     (52.7 %), step = 500 ms          (1 %)
    tran: time = 28.84 s     (57.7 %), step = 500 ms          (1 %)
    tran: time = 31.34 s     (62.7 %), step = 500 ms          (1 %)
    tran: time = 33.84 s     (67.7 %), step = 500 ms          (1 %)
    tran: time = 36.34 s     (72.7 %), step = 500 ms          (1 %)
    tran: time = 38.84 s     (77.7 %), step = 500 ms          (1 %)
    tran: time = 41.34 s     (82.7 %), step = 500 ms          (1 %)
    tran: time = 43.84 s     (87.7 %), step = 500 ms          (1 %)
    tran: time = 46.34 s     (92.7 %), step = 500 ms          (1 %)
    tran: time = 48.84 s     (97.7 %), step = 500 ms          (1 %)
Number of accepted tran steps =             738

Maximum value achieved for any signal of each quantity: 
V: V(S<0>) = 3.3 V
I: I(V8:p) = 6.586 uA

~~~~~~~~~~~~~~~~~~~~~~~~~~~~~~~~~
Post-Transient Simulation Summary
~~~~~~~~~~~~~~~~~~~~~~~~~~~~~~~~~
   -   To further speed up simulation, consider
          add ++aps on command line
   -   Non-default settings that could significantly slow down simulation
          errpreset = conservative, default moderate
          reltol = 10e-06, default 100e-06 (conservative)
~~~~~~~~~~~~~~~~~~~~~~~~~~~~~~~~~


During simulation, the CPU load for active processors is :
         0 (29.0 %)      1 (19.6 %)      2 (47.7 %)      3 (27.6 %)
         4 (20.2 %)      5 (24.4 %)      6 (48.5 %)      7 (19.7 %)
         8 (35.4 %)      9 (15.4 %)     10 (14.2 %)     11 (27.6 %)
        12 (29.1 %)     13 (25.9 %)     14 (10.2 %)     15 (20.2 %)
        16 (24.6 %)     17 (14.9 %)     18 (24.4 %)     19 (28.6 %)
        20 (16.6 %)     21 (37.0 %)     22 (30.1 %)     23 (30.9 %)
        24 (31.9 %)     25 (14.8 %)     26 (14.8 %)     27 (8.8 %)
        28 (99.9 %)     29 (15.4 %)     30 (18.0 %)     31 (36.6 %)
        32 (10.4 %)     33 (23.8 %)     34 (20.8 %)     35 (17.9 %)
        36 (32.1 %)     37 (38.0 %)     38 (25.4 %)     39 (23.5 %)
        40 (100.0 %)    41 (8.6 %)      42 (22.0 %)     43 (24.6 %)
        44 (17.6 %)     45 (16.8 %)     46 (26.1 %)     47 (21.1 %)
        Total: 1291.1%
Initial condition solution time: CPU = 2.851 ms, elapsed = 2.85411 ms.
Intrinsic tran analysis time:    CPU = 449.376 ms, elapsed = 451.197 ms.
Total time required for tran analysis `tran': CPU = 455.275 ms, elapsed = 457.69 ms, util. = 99.5%.
Time accumulated: CPU = 50.2514 s, elapsed = 52.2523 s.
Peak resident memory used = 214 Mbytes.


Notice from spectre during transient analysis `tran', during Monte Carlo analysis `mc1'.
    34 warnings suppressed.

finalTimeOP: writing operating point information to rawfile.

Opening the PSF file ../psf/mc1_separate/100/finalTimeOP.info ...
modelParameter: writing model parameter values to rawfile.

Opening the PSF file ../psf/mc1_separate/100/modelParameter.info ...
element: writing instance parameter values to rawfile.

Opening the PSF file ../psf/mc1_separate/100/element.info ...
outputParameter: writing output parameter values to rawfile.

Opening the PSF file ../psf/mc1_separate/100/outputParameter.info ...
designParamVals: writing netlist parameters to rawfile.

Opening the PSFASCII file ../psf/mc1_separate/100/designParamVals.info ...
primitives: writing primitives to rawfile.

Opening the PSFASCII file ../psf/mc1_separate/100/primitives.info.primitives ...
subckts: writing subcircuits to rawfile.

Opening the PSFASCII file ../psf/mc1_separate/100/subckts.info.subckts ...
    mc1: iteration = 100          (100 %), step = 1            (1.01 %)
Total time required for montecarlo analysis `mc1': CPU = 49.8228 s, elapsed = 51.2506 s, util. = 97.2%.
Time accumulated: CPU = 50.2794 s, elapsed = 52.2937 s.
Peak resident memory used = 214 Mbytes.

Licensing Information:
Lic Summary:
[16:48:57.193176] Cdslmd servers:3000@lic08.ug.kth.se:29000@lic06.ug.kth.se
[16:48:57.717505] Feature usage summary:
[16:48:57.717506] Virtuoso_Multi_mode_Simulation


Aggregate audit (4:48:57 PM, Wed Apr 15, 2026):
Time used: CPU = 50.3 s, elapsed = 52.3 s, util. = 96.1%.
Time spent in licensing: elapsed = 53.7 ms.
Peak memory used = 215 Mbytes.
Simulation started at: 4:48:05 PM, Wed Apr 15, 2026, ended at: 4:48:57 PM, Wed Apr 15, 2026, with elapsed time (wall clock): 52.3 s.
spectre completes with 0 errors, 522 warnings, and 310 notices.
