
Spectre (R) Circuit Simulator
Version 24.1.0.288.isr5 64bit -- 3 Apr 2025
Copyright (C) 1989-2025 Cadence Design Systems, Inc. All rights reserved worldwide. Cadence and Spectre are registered trademarks of Cadence Design Systems, Inc. All others are the property of their respective holders.

Includes RSA BSAFE(R) Cryptographic or Security Protocol Software from RSA Security, Inc.

User: davidevi   Host: il2244vt26_davidevi   HostID: 11AC2C00   PID: 1069025
Memory  available: 3.0280 TB  physical: 3.2467 TB
Linux   : Rocky Linux release 8.10 (Green Obsidian)
CPU Type: Intel(R) Xeon(R) CPU E7-8857 v2 @ 3.00GHz
        Socket: Processors [Frequency]
        0:       0 [3390.8],  1 [3392.0],  2 [3378.7],  3 [3387.3],  4 [3600.0]
                 5 [3600.0],  6 [3386.2],  7 [3390.8],  8 [3600.0],  9 [3385.8]
                10 [3390.8], 11 [3600.0]
        1:      12 [3600.0], 13 [3600.0], 14 [3399.9], 15 [3600.0], 16 [3600.0]
                17 [3600.0], 18 [3399.9], 19 [3600.0], 20 [3600.0], 21 [3600.0]
                22 [3300.0], 23 [3399.9]
        2:      24 [3600.0], 25 [3399.9], 26 [3600.0], 27 [3399.9], 28 [3600.0]
                29 [3600.0], 30 [3399.8], 31 [3600.0], 32 [3399.9], 33 [3600.0]
                34 [3600.0], 35 [3500.0]
        3:      36 [3380.9], 37 [3600.0], 38 [3600.0], 39 [3600.0], 40 [3380.9]
                41 [3388.8], 42 [3600.0], 43 [3600.0], 44 [1600.0], 45 [3600.0]
                46 [3600.0], 47 [3600.0]
        
System load averages (1min, 5min, 15min) : 37.1 %, 31.0 %, 24.8 %
HPC is enabled


Simulating `input.scs' on il2244vt26_davidevi at 9:36:35 AM, Thur Apr 16, 2026 (process id: 1069025).
Current working directory: /home/davidevi/Desktop/myproject/Sim/VGA/VGA_1_wakeup_tb/adexl/results/data/MonteCarlo.2/26/wakeup_MC/groupRunDataDir/netlist
Command line:
    /opt/tools/cadence/installs/SPECTRE241/tools/bin/spectre -64  \
        input.scs +escchars +log ../psf/spectre.out -format psfbin  \
        +rtsf -raw ../psf +aps +mt +lqtimeout 900 -maxw 5 -maxn 5  \
        +param /opt/pdk/ams/410/spectre/ams_range.lmts -env ade  \
        -ahdllibdir  \
        /home/davidevi/Desktop/myproject/Sim/VGA/VGA_1_wakeup_tb/adexl/results/data/MonteCarlo.2/sharedData/Job489/ahdl/input.ahdlSimDB  \
        +logstatus  \
        +adespetkn=0001089D13A302B663E41FB550AF0DF415A679A322D5069144BF588C12F604E07EF416DC01A319B562BB63D355F613BF45A36AB65EFF45BB41CD0FE013DB4F9200F179D15D9175FF34986BDD0AF002BA50FD7FD707E002A700AC1C8612FA4CE70EAB79D12DF874D3349879D118F874D334981031B55AD9715D78000036A8

Simulation Id: glwof2uU1h0bBX4i
Licensing Information:
[09:36:35.121810] Configured Lic search path (24.01-s002): 3000@lic08.ug.kth.se:29000@lic06.ug.kth.se

Licensing Information:
[09:36:35.443705] Periodic Lic check successful

Loading /opt/tools/cadence/installs/SPECTRE241/tools.lnx86/cmi/lib/64bit/5.0/libinfineon_sh.so ...
Loading /opt/tools/cadence/installs/SPECTRE241/tools.lnx86/cmi/lib/64bit/5.0/libphilips_I_sh.so ...
Loading /opt/tools/cadence/installs/SPECTRE241/tools.lnx86/cmi/lib/64bit/5.0/libphilips_sh.so ...
Loading /opt/tools/cadence/installs/SPECTRE241/tools.lnx86/cmi/lib/64bit/5.0/libsparam_sh.so ...
Loading /opt/tools/cadence/installs/SPECTRE241/tools.lnx86/cmi/lib/64bit/5.0/libstmodels_sh.so ...

Warning from spectre.
    WARNING (SPECTRE-691): This CPU processor does not support x86 advanced vector extensions instructions. This may affect math operations and slow down the simulation.

Reading file:  /home/davidevi/Desktop/myproject/Sim/VGA/VGA_1_wakeup_tb/adexl/results/data/MonteCarlo.2/26/wakeup_MC/groupRunDataDir/netlist/input.scs
Reading file:  /opt/pdk/ams/410/spectre/ams_range.lmts

Warning from spectre during read of parameter soft limits file `/opt/pdk/ams/410/spectre/ams_range.lmts', during circuit read-in.
    WARNING (SPECTRE-8360): line 1511: `ac' is an undefined primitive device.
    WARNING (SPECTRE-8360): line 1512: `ac' is an undefined primitive device.
    WARNING (SPECTRE-8360): line 1513: `ac' is an undefined primitive device.
    WARNING (SPECTRE-8360): line 1514: `ac' is an undefined primitive device.
    WARNING (SPECTRE-8360): line 1515: `ac' is an undefined primitive device.
        Further occurrences of this warning will be suppressed.

Reading file:  /opt/tools/cadence/installs/SPECTRE241/tools.lnx86/spectre/etc/configs/spectre.cfg
Reading file:  /opt/pdk/ams/410/spectre/c35/soac/soac.scs
Reading file:  /opt/pdk/ams/410/spectre/c35/soac/processOption.scs
Reading file:  /opt/pdk/ams/410/spectre/c35/soac/process.scs
Reading file:  /opt/pdk/ams/410/spectre/c35/soac/soac.va

Warning from spectre during AHDL read-in.
    WARNING (VACOMP-2435): The environment variable CDS_AHDLCMI_ENABLE is no longer supported. Therefore, the simulator will use the default compiled C code flow.

Reading link:  /opt/tools/cadence/installs/SPECTRE241/tools.lnx86/spectre/etc/ahdl/constants.h
Reading file:  /opt/tools/cadence/installs/SPECTRE241/tools.lnx86/spectre/etc/ahdl/constants.vams
Reading link:  /opt/tools/cadence/installs/SPECTRE241/tools.lnx86/spectre/etc/ahdl/discipline.h
Reading file:  /opt/tools/cadence/installs/SPECTRE241/tools.lnx86/spectre/etc/ahdl/disciplines.vams
Reading file:  /opt/pdk/ams/410/spectre/c35/processOption/C35B4C3.scs
Reading file:  /opt/pdk/ams/410/spectre/c35/soac/cmos53.scs
Reading file:  /opt/pdk/ams/410/spectre/c35/soac/res.scs
Reading file:  /opt/pdk/ams/410/spectre/c35/soac/cap.scs
Reading file:  /opt/pdk/ams/410/spectre/c35/soac/bip.scs
Reading file:  /opt/pdk/ams/410/spectre/c35/soac/ind.scs
Reading file:  /opt/pdk/ams/410/spectre/c35/soac/esddiode.scs
Time for NDB Parsing: CPU = 177.2 ms, elapsed = 443.179 ms.
Time accumulated: CPU = 355.594 ms, elapsed = 443.182 ms.
Peak resident memory used = 171 Mbytes.

Existing shared object for module modn_ahdl is up to date.
Installed compiled interface for modn_ahdl.
Existing shared object for module modp_ahdl is up to date.
Installed compiled interface for modp_ahdl.
Existing shared object for module cpoly_ahdl is up to date.
Installed compiled interface for cpoly_ahdl.
Existing shared object for module rpolyh_ahdl is up to date.
Installed compiled interface for rpolyh_ahdl.
Opening directory /home/davidevi/Desktop/myproject/Sim/VGA/VGA_1_wakeup_tb/adexl/results/data/MonteCarlo.2/sharedData/Job489/ahdl/input.ahdlSimDB/input.ahdlSimDB/ (775)
Created directory /home/davidevi/Desktop/myproject/Sim/VGA/VGA_1_wakeup_tb/adexl/results/data/MonteCarlo.2/sharedData/Job489/ahdl/input.ahdlSimDB/input.ahdlSimDB//bsource_fcab9d.va.bsource_fcab9d.ahdlcmi/ (775)
Reading file:  /home/davidevi/Desktop/myproject/Sim/ECG_IA/ecg_vga_tb/adexl/results/data/MonteCarlo.3/sharedData/Job173/ahdl/input.ahdlSimDB/input.ahdlSimDB/bsource_fcab9d.va.bsource_fcab9d.ahdlcmi/Linux-64/obj/optimize/5.0/libahdlcmi_bsource_fcab9d.so
Created directory /home/davidevi/Desktop/myproject/Sim/VGA/VGA_1_wakeup_tb/adexl/results/data/MonteCarlo.2/sharedData/Job489/ahdl/input.ahdlSimDB/input.ahdlSimDB//bsource_fcab9d.va.bsource_fcab9d.ahdlcmi/Linux-64/obj/optimize/5.0 
Copying files from directory /home/davidevi/Desktop/myproject/Sim/ECG_IA/ecg_vga_tb/adexl/results/data/MonteCarlo.3/sharedData/Job173/ahdl/input.ahdlSimDB/input.ahdlSimDB/bsource_fcab9d.va.bsource_fcab9d.ahdlcmi/Linux-64/ to directory /home/davidevi/Desktop/myproject/Sim/VGA/VGA_1_wakeup_tb/adexl/results/data/MonteCarlo.2/sharedData/Job489/ahdl/input.ahdlSimDB/input.ahdlSimDB//bsource_fcab9d.va.bsource_fcab9d.ahdlcmi/Linux-64/
Finished copying files from /home/davidevi/Desktop/myproject/Sim/ECG_IA/ecg_vga_tb/adexl/results/data/MonteCarlo.3/sharedData/Job173/ahdl/input.ahdlSimDB/input.ahdlSimDB/bsource_fcab9d.va.bsource_fcab9d.ahdlcmi/Linux-64/ to /home/davidevi/Desktop/myproject/Sim/VGA/VGA_1_wakeup_tb/adexl/results/data/MonteCarlo.2/sharedData/Job489/ahdl/input.ahdlSimDB/input.ahdlSimDB//bsource_fcab9d.va.bsource_fcab9d.ahdlcmi/Linux-64/.
The simulator has reused the existing Verilog-A libraries for this simulation run. If you do not want to use these libraries, set the 'CDS_AHDL_REUSE_LIB' environment variable to 'NO' and rerun the simulation.
Existing shared object for module bsource_fcab9d is up to date.
Installed compiled interface for bsource_fcab9d.
Time for Elaboration: CPU = 214.732 ms, elapsed = 363.929 ms.
Time accumulated: CPU = 570.505 ms, elapsed = 807.289 ms.
Peak resident memory used = 188 Mbytes.


Notice from spectre during hierarchy flattening.
    The value 'psf' specified for the 'checklimitdest' option will no longer be supported in future releases. Use 'spectre -h' to see other recommended values for the 'checklimitdest' option.


*****************************************************************************************
* 
* INFO: AMS_processOption = C35B4C3
* 
* INFO: Valid Modules  PIP VG5 HIRES
* 
*****************************************************************************************


Notice from spectre during hierarchy flattening.
    V8: `period' has the unusually large value of 100 s.


Time for EDB Visiting: CPU = 9.268 ms, elapsed = 10.2439 ms.
Time accumulated: CPU = 579.89 ms, elapsed = 817.649 ms.
Peak resident memory used = 190 Mbytes.

Loading /opt/tools/cadence/installs/SPECTRE241/tools.lnx86/mdl/lib/64bit/libSpectreEH_sh.so ...

Warning from spectre during initial setup.
    WARNING (SPECTRE-16460): SOAC_cvarm_vspsub:Specified subcircuit master `cvarm' was not found.
    WARNING (SPECTRE-16462): SOAC_cvarm_vspsub:Error in specification of subcircuit master. Assert is ignored.
    WARNING (SPECTRE-16460): SOAC_cvarm_vbs:Specified subcircuit master `cvarm' was not found.
    WARNING (SPECTRE-16462): SOAC_cvarm_vbs:Error in specification of subcircuit master. Assert is ignored.
    WARNING (SPECTRE-16460): SOAC_cvarm_vgb:Specified subcircuit master `cvarm' was not found.
    WARNING (SPECTRE-16462): SOAC_cvarm_vgb:Error in specification of subcircuit master. Assert is ignored.
    WARNING (SPECTRE-16460): SOAC_cvart_vspsub:Specified subcircuit master `cvart' was not found.
    WARNING (SPECTRE-16462): SOAC_cvart_vspsub:Error in specification of subcircuit master. Assert is ignored.
    WARNING (SPECTRE-16460): SOAC_cvart_vbs:Specified subcircuit master `cvart' was not found.
        Further occurrences of this warning will be suppressed.
    WARNING (SPECTRE-16462): SOAC_cvart_vbs:Error in specification of subcircuit master. Assert is ignored.
        Further occurrences of this warning will be suppressed.
Notice from spectre during topology check.
    Only one connection to the following 54 nodes:
        I0.MN6.psub!
        I0.MN5.psub!
        I0.MN4.psub!
        I0.MN3.psub!
        I0.MN2.psub!
        Further occurrences of this notice will be suppressed.
Notice from spectre during initial setup.
    Multithreading is disabled due to the size of the design being too small.


Netlist title:
        // Point Netlist Generated on: Apr 16 09:36:35 2026


Global user options:
         psfversion = 1.4.0
            vabstol = 1e-06
            iabstol = 1e-12
               temp = 27
           homotopy = 5
              limit = delta
         compatible = spice2
               gmin = 1e-12
             rforce = 1
           maxnotes = 5
           maxwarns = 5
             digits = 5
               cols = 80
             pivrel = 0.001
           sensfile = ../psf/sens.output
     checklimitdest = psf
     enable_pre_ver = yes
      ignorezerovar = yes
               save = allpub
             reltol = 0.0001
               tnom = 27
             scalem = 1
              scale = 1

Scoped user options:

Circuit inventory:
              nodes 88
            bsim3v3 35    
     bsource_fcab9d 2     
          capacitor 38    
         cpoly_ahdl 17    
            isource 1     
          modn_ahdl 19    
          modp_ahdl 16    
           resistor 1     
        rpolyh_ahdl 2     
            vsource 8     

Analysis and control statement inventory:
               info 7     
         montecarlo 1     
               tran 1     

Output statements:
             .probe 0     
           .measure 0     
               save 0     

Design checks inventory:
          paramtest 55    
             assert 175   


Notice from spectre during initial setup.
    APS enabled.
    1 notice suppressed.
    72 warnings suppressed.

Time for parsing: CPU = 16.047 ms, elapsed = 669.483 ms.
Time accumulated: CPU = 596.081 ms, elapsed = 1.48727 s.
Peak resident memory used = 197 Mbytes.

~~~~~~~~~~~~~~~~~~~~~~
Pre-Simulation Summary
~~~~~~~~~~~~~~~~~~~~~~
   -   (APS) Multi-threading. The recommended number of threads is 1, consider adding +mt=1 on command line.
~~~~~~~~~~~~~~~~~~~~~~

**************************************************
Monte Carlo Analysis `mc1': iteration = (26 -> 50)
**************************************************
Important parameter values:
    seed = 12345
    sampling = lds
    variations = all
    firstrun = 26
    numruns = 25
    nullmfactorcorrelation = no
    donominal = no
    method = standard
Opening iteration number and data-directory mapping file:  /home/davidevi/Desktop/myproject/Sim/VGA/VGA_1_wakeup_tb/adexl/results/data/MonteCarlo.2/26/wakeup_MC/groupRunDataDir/netlist/../psf/mc1.mapping

Statistical parameters:
    Defined process parameters: 629
    Defined mismatch parameters (subckt based): 86
    Non-referenced mismatch parameters: 80
    Number of random variables: 718
    Gaussian truncation for process parameters: 4.00 sigma
    Gaussian truncation for mismatch parameters: 4.00 sigma


**** Skipping runs 1 to 25 for `mc1'


Opening the PSF file ../psf/mc1_tran.montecarlo ...

Opening the PSF file ../psf/mc1_finalTimeOP.montecarlo ...

Opening the PSF file ../psf/mc1_modelParameter.montecarlo ...

Opening the PSF file ../psf/mc1_element.montecarlo ...

Opening the PSF file ../psf/mc1_outputParameter.montecarlo ...

Opening the PSF file ../psf/mc1_designParamVals.montecarlo ...

Opening the PSF file ../psf/mc1_primitives.montecarlo ...

Opening the PSF file ../psf/mc1_subckts.montecarlo ...

**** Performing monte carlo loop for `mc1'

26   0.00% 

*****************************************************************************************
* 
* INFO: AMS_processOption = C35B4C3
* 
* INFO: Valid Modules  PIP VG5 HIRES
* 
*****************************************************************************************


Notice from spectre at iteration = 26 during Monte Carlo analysis `mc1'.
    V8: `period' has the unusually large value of 100 s.
Notice from spectre at iteration = 26 during transient analysis `tran', during Monte Carlo analysis `mc1'.
    No checklimit analysis defined for asserts. A default checklimit analysis 'SpectreChecklimitAnal' has been created with all asserts enabled.


***********************************************
Transient Analysis `tran': time = (0 s -> 50 s)
***********************************************

Opening the PSF file ../psf/mc1_separate/026/tran.tran.tran ...

Warning from spectre at iteration = 26 during check, during IC analysis, during transient analysis `tran', during Monte Carlo analysis `mc1'.
    WARNING (CMI-2943): Parameter checks have been ignored because the valid value for parameter 'trise' could not be found in 'C1'.
    WARNING (CMI-2943): Parameter checks have been ignored because the valid value for parameter 'trise' could not be found in 'I0.R2.CM'.
    WARNING (CMI-2943): Parameter checks have been ignored because the valid value for parameter 'trise' could not be found in 'I0.R2.CS1'.
    WARNING (CMI-2943): Parameter checks have been ignored because the valid value for parameter 'trise' could not be found in 'I0.R2.CS0'.
    WARNING (CMI-2943): Parameter checks have been ignored because the valid value for parameter 'trise' could not be found in 'I0.C8<3>.C1'.
        Further occurrences of this warning will be suppressed.

Convergence achieved in 12 iterations.
DC simulation time: CPU = 2.732 ms, elapsed = 2.73204 ms.
Important parameter values:
    start = 0 s
    outputstart = 0 s
    stop = 50 s
    step = 50 ms
    maxstep = 500 ms
    ic = all
    useprevic = no
    skipdc = no
    reltol = 10e-06
    abstol(V) = 1 uV
    abstol(I) = 1 pA
    temp = 27 C
    tnom = 27 C
    tempeffects = all
    errpreset = conservative
    method = gear2only
    lteratio = 10
    relref = alllocal
    cmin = 0 F
    gmin = 1 pS
    rabsshort = 1 mOhm


Notice from spectre at iteration = 26 during transient analysis `tran', during Monte Carlo analysis `mc1'.
    Multithreading is disabled due to the size of the design being too small.


Output and IC/nodeset summary:
                 save   8       (current)
                 save   87      (voltage)

    tran: time = 1.284 s     (2.57 %), step = 66.44 ms     (133 m%)
    tran: time = 3.803 s     (7.61 %), step = 313 ms       (626 m%)
    tran: time = 6.38 s      (12.8 %), step = 500 ms          (1 %)
    tran: time = 8.88 s      (17.8 %), step = 500 ms          (1 %)
    tran: time = 11.38 s     (22.8 %), step = 500 ms          (1 %)
    tran: time = 13.88 s     (27.8 %), step = 500 ms          (1 %)
    tran: time = 16.38 s     (32.8 %), step = 500 ms          (1 %)
    tran: time = 18.88 s     (37.8 %), step = 500 ms          (1 %)
    tran: time = 21.38 s     (42.8 %), step = 500 ms          (1 %)
    tran: time = 23.88 s     (47.8 %), step = 500 ms          (1 %)
    tran: time = 26.38 s     (52.8 %), step = 500 ms          (1 %)
    tran: time = 28.88 s     (57.8 %), step = 500 ms          (1 %)
    tran: time = 31.38 s     (62.8 %), step = 500 ms          (1 %)
    tran: time = 33.88 s     (67.8 %), step = 500 ms          (1 %)
    tran: time = 36.38 s     (72.8 %), step = 500 ms          (1 %)
    tran: time = 38.88 s     (77.8 %), step = 500 ms          (1 %)
    tran: time = 41.38 s     (82.8 %), step = 500 ms          (1 %)
    tran: time = 43.88 s     (87.8 %), step = 500 ms          (1 %)
    tran: time = 46.38 s     (92.8 %), step = 500 ms          (1 %)
    tran: time = 48.88 s     (97.8 %), step = 500 ms          (1 %)
Number of accepted tran steps =             744

Maximum value achieved for any signal of each quantity: 
V: V(vout) = 3.3 V
I: I(V8:p) = 6.449 uA

~~~~~~~~~~~~~~~~~~~~~~~~~~~~~~~~~
Post-Transient Simulation Summary
~~~~~~~~~~~~~~~~~~~~~~~~~~~~~~~~~
   -   To further speed up simulation, consider
          add ++aps on command line
   -   Non-default settings that could significantly slow down simulation
          errpreset = conservative, default moderate
          reltol = 10e-06, default 100e-06 (conservative)
~~~~~~~~~~~~~~~~~~~~~~~~~~~~~~~~~


During simulation, the CPU load for active processors is :
         0 (13.3 %)      1 (41.1 %)      2 (26.1 %)      3 (27.3 %)
         4 (44.6 %)      5 (47.7 %)      6 (7.5 %)       7 (100.0 %)
         8 (4.1 %)       9 (34.1 %)     10 (97.7 %)     11 (4.0 %)
        12 (33.0 %)     13 (65.3 %)     14 (27.6 %)     15 (26.4 %)
        16 (36.7 %)     17 (94.9 %)     18 (12.5 %)     19 (40.6 %)
        20 (19.4 %)     21 (29.8 %)     22 (31.6 %)     23 (27.3 %)
        24 (13.7 %)     25 (87.9 %)     26 (16.1 %)     27 (56.6 %)
        28 (61.6 %)     29 (63.3 %)     30 (44.6 %)     31 (8.6 %)
        32 (94.3 %)     33 (67.6 %)     34 (3.5 %)      35 (12.9 %)
        36 (100.0 %)    37 (7.7 %)      38 (16.4 %)     39 (19.2 %)
        40 (100.0 %)    41 (21.3 %)     42 (16.2 %)     43 (66.9 %)
        44 (62.3 %)     45 (8.8 %)      46 (33.1 %)     47 (9.1 %)
        Total: 1884.5%
Initial condition solution time: CPU = 2.773 ms, elapsed = 2.77495 ms.
Intrinsic tran analysis time:    CPU = 400.74 ms, elapsed = 402.457 ms.
Total time required for tran analysis `tran': CPU = 478.215 ms, elapsed = 483.572 ms, util. = 98.9%.
Time accumulated: CPU = 1.14779 s, elapsed = 2.0511 s.
Peak resident memory used = 212 Mbytes.


Notice from spectre during transient analysis `tran', during Monte Carlo analysis `mc1'.
    34 warnings suppressed.

finalTimeOP: writing operating point information to rawfile.

Opening the PSF file ../psf/mc1_separate/026/finalTimeOP.info ...
modelParameter: writing model parameter values to rawfile.

Opening the PSF file ../psf/mc1_separate/026/modelParameter.info ...
element: writing instance parameter values to rawfile.

Opening the PSF file ../psf/mc1_separate/026/element.info ...
outputParameter: writing output parameter values to rawfile.

Opening the PSF file ../psf/mc1_separate/026/outputParameter.info ...
designParamVals: writing netlist parameters to rawfile.

Opening the PSFASCII file ../psf/mc1_separate/026/designParamVals.info ...
primitives: writing primitives to rawfile.

Opening the PSFASCII file ../psf/mc1_separate/026/primitives.info.primitives ...
subckts: writing subcircuits to rawfile.

Opening the PSFASCII file ../psf/mc1_separate/026/subckts.info.subckts ...
27   4.17% 

*****************************************************************************************
* 
* INFO: AMS_processOption = C35B4C3
* 
* INFO: Valid Modules  PIP VG5 HIRES
* 
*****************************************************************************************


Notice from spectre during Monte Carlo analysis `mc1'.
    V8: `period' has the unusually large value of 100 s.


***********************************************
Transient Analysis `tran': time = (0 s -> 50 s)
***********************************************

Opening the PSF file ../psf/mc1_separate/027/tran.tran.tran ...

Warning from spectre during check, during IC analysis, during transient analysis `tran', during Monte Carlo analysis `mc1'.
    WARNING (CMI-2943): Parameter checks have been ignored because the valid value for parameter 'trise' could not be found in 'C1'.
    WARNING (CMI-2943): Parameter checks have been ignored because the valid value for parameter 'trise' could not be found in 'I0.R2.CM'.
    WARNING (CMI-2943): Parameter checks have been ignored because the valid value for parameter 'trise' could not be found in 'I0.R2.CS1'.
    WARNING (CMI-2943): Parameter checks have been ignored because the valid value for parameter 'trise' could not be found in 'I0.R2.CS0'.
    WARNING (CMI-2943): Parameter checks have been ignored because the valid value for parameter 'trise' could not be found in 'I0.C8<3>.C1'.
        Further occurrences of this warning will be suppressed.

Convergence achieved in 12 iterations.
DC simulation time: CPU = 2.225 ms, elapsed = 2.22611 ms.
Important parameter values:
    start = 0 s
    outputstart = 0 s
    stop = 50 s
    step = 50 ms
    maxstep = 500 ms
    ic = all
    useprevic = no
    skipdc = no
    reltol = 10e-06
    abstol(V) = 1 uV
    abstol(I) = 1 pA
    temp = 27 C
    tnom = 27 C
    tempeffects = all
    errpreset = conservative
    method = gear2only
    lteratio = 10
    relref = alllocal
    cmin = 0 F
    gmin = 1 pS
    rabsshort = 1 mOhm


Notice from spectre during transient analysis `tran', during Monte Carlo analysis `mc1'.
    Multithreading is disabled due to the size of the design being too small.


Output and IC/nodeset summary:
                 save   8       (current)
                 save   87      (voltage)

    tran: time = 1.326 s     (2.65 %), step = 126.3 ms     (253 m%)
    tran: time = 3.977 s     (7.95 %), step = 370.9 ms     (742 m%)
    tran: time = 6.299 s     (12.6 %), step = 500 ms          (1 %)
    tran: time = 8.799 s     (17.6 %), step = 500 ms          (1 %)
    tran: time = 11.3 s      (22.6 %), step = 500 ms          (1 %)
    tran: time = 13.8 s      (27.6 %), step = 500 ms          (1 %)
    tran: time = 16.3 s      (32.6 %), step = 500 ms          (1 %)
    tran: time = 18.8 s      (37.6 %), step = 500 ms          (1 %)
    tran: time = 21.3 s      (42.6 %), step = 500 ms          (1 %)
    tran: time = 23.8 s      (47.6 %), step = 500 ms          (1 %)
    tran: time = 26.3 s      (52.6 %), step = 500 ms          (1 %)
    tran: time = 28.8 s      (57.6 %), step = 500 ms          (1 %)
    tran: time = 31.3 s      (62.6 %), step = 500 ms          (1 %)
    tran: time = 33.8 s      (67.6 %), step = 500 ms          (1 %)
    tran: time = 36.3 s      (72.6 %), step = 500 ms          (1 %)
    tran: time = 38.8 s      (77.6 %), step = 500 ms          (1 %)
    tran: time = 41.3 s      (82.6 %), step = 500 ms          (1 %)
    tran: time = 43.8 s      (87.6 %), step = 500 ms          (1 %)
    tran: time = 46.3 s      (92.6 %), step = 500 ms          (1 %)
    tran: time = 48.8 s      (97.6 %), step = 500 ms          (1 %)
Number of accepted tran steps =             741

Maximum value achieved for any signal of each quantity: 
V: V(S<0>) = 3.3 V
I: I(V8:p) = 6.529 uA

~~~~~~~~~~~~~~~~~~~~~~~~~~~~~~~~~
Post-Transient Simulation Summary
~~~~~~~~~~~~~~~~~~~~~~~~~~~~~~~~~
   -   To further speed up simulation, consider
          add ++aps on command line
   -   Non-default settings that could significantly slow down simulation
          errpreset = conservative, default moderate
          reltol = 10e-06, default 100e-06 (conservative)
~~~~~~~~~~~~~~~~~~~~~~~~~~~~~~~~~


During simulation, the CPU load for active processors is :
         0 (11.5 %)      1 (43.5 %)      2 (20.5 %)      3 (33.8 %)
         4 (39.7 %)      5 (59.6 %)      6 (6.6 %)       7 (100.0 %)
         8 (4.4 %)       9 (47.8 %)     10 (75.8 %)     11 (6.5 %)
        12 (28.4 %)     13 (53.1 %)     14 (29.8 %)     15 (22.1 %)
        16 (35.1 %)     17 (87.6 %)     18 (26.8 %)     19 (32.3 %)
        20 (21.9 %)     21 (27.3 %)     22 (46.9 %)     23 (33.2 %)
        24 (11.4 %)     25 (89.1 %)     26 (14.0 %)     27 (44.5 %)
        28 (70.0 %)     29 (71.9 %)     30 (36.1 %)     31 (6.6 %)
        32 (93.9 %)     33 (75.2 %)     34 (4.9 %)      35 (10.7 %)
        36 (100.0 %)    37 (27.7 %)     38 (19.6 %)     39 (23.5 %)
        40 (100.0 %)    41 (21.5 %)     42 (14.2 %)     43 (52.2 %)
        44 (65.2 %)     45 (7.6 %)      46 (28.3 %)     47 (10.5 %)
        Total: 1892.8%
Initial condition solution time: CPU = 2.275 ms, elapsed = 2.2769 ms.
Intrinsic tran analysis time:    CPU = 391.534 ms, elapsed = 393.005 ms.
Total time required for tran analysis `tran': CPU = 396.563 ms, elapsed = 398.722 ms, util. = 99.5%.
Time accumulated: CPU = 1.58985 s, elapsed = 2.50662 s.
Peak resident memory used = 212 Mbytes.


Notice from spectre during transient analysis `tran', during Monte Carlo analysis `mc1'.
    34 warnings suppressed.

finalTimeOP: writing operating point information to rawfile.

Opening the PSF file ../psf/mc1_separate/027/finalTimeOP.info ...
modelParameter: writing model parameter values to rawfile.

Opening the PSF file ../psf/mc1_separate/027/modelParameter.info ...
element: writing instance parameter values to rawfile.

Opening the PSF file ../psf/mc1_separate/027/element.info ...
outputParameter: writing output parameter values to rawfile.

Opening the PSF file ../psf/mc1_separate/027/outputParameter.info ...
designParamVals: writing netlist parameters to rawfile.

Opening the PSFASCII file ../psf/mc1_separate/027/designParamVals.info ...
primitives: writing primitives to rawfile.

Opening the PSFASCII file ../psf/mc1_separate/027/primitives.info.primitives ...
subckts: writing subcircuits to rawfile.

Opening the PSFASCII file ../psf/mc1_separate/027/subckts.info.subckts ...
    mc1: iteration = 27          (4.17 %), step = 1            (4.17 %)
28   8.33% 

*****************************************************************************************
* 
* INFO: AMS_processOption = C35B4C3
* 
* INFO: Valid Modules  PIP VG5 HIRES
* 
*****************************************************************************************


Notice from spectre during Monte Carlo analysis `mc1'.
    V8: `period' has the unusually large value of 100 s.


***********************************************
Transient Analysis `tran': time = (0 s -> 50 s)
***********************************************

Opening the PSF file ../psf/mc1_separate/028/tran.tran.tran ...

Warning from spectre during check, during IC analysis, during transient analysis `tran', during Monte Carlo analysis `mc1'.
    WARNING (CMI-2943): Parameter checks have been ignored because the valid value for parameter 'trise' could not be found in 'C1'.
    WARNING (CMI-2943): Parameter checks have been ignored because the valid value for parameter 'trise' could not be found in 'I0.R2.CM'.
    WARNING (CMI-2943): Parameter checks have been ignored because the valid value for parameter 'trise' could not be found in 'I0.R2.CS1'.
    WARNING (CMI-2943): Parameter checks have been ignored because the valid value for parameter 'trise' could not be found in 'I0.R2.CS0'.
    WARNING (CMI-2943): Parameter checks have been ignored because the valid value for parameter 'trise' could not be found in 'I0.C8<3>.C1'.
        Further occurrences of this warning will be suppressed.

Convergence achieved in 12 iterations.
DC simulation time: CPU = 2.177 ms, elapsed = 2.17795 ms.
Important parameter values:
    start = 0 s
    outputstart = 0 s
    stop = 50 s
    step = 50 ms
    maxstep = 500 ms
    ic = all
    useprevic = no
    skipdc = no
    reltol = 10e-06
    abstol(V) = 1 uV
    abstol(I) = 1 pA
    temp = 27 C
    tnom = 27 C
    tempeffects = all
    errpreset = conservative
    method = gear2only
    lteratio = 10
    relref = alllocal
    cmin = 0 F
    gmin = 1 pS
    rabsshort = 1 mOhm


Notice from spectre during transient analysis `tran', during Monte Carlo analysis `mc1'.
    Multithreading is disabled due to the size of the design being too small.


Output and IC/nodeset summary:
                 save   8       (current)
                 save   87      (voltage)

    tran: time = 1.319 s     (2.64 %), step = 102.6 ms     (205 m%)
    tran: time = 3.948 s      (7.9 %), step = 208.6 ms     (417 m%)
    tran: time = 6.353 s     (12.7 %), step = 113.8 ms     (228 m%)
    tran: time = 8.872 s     (17.7 %), step = 381.4 ms     (763 m%)
    tran: time = 11.71 s     (23.4 %), step = 500 ms          (1 %)
    tran: time = 14.21 s     (28.4 %), step = 500 ms          (1 %)
    tran: time = 16.71 s     (33.4 %), step = 500 ms          (1 %)
    tran: time = 19.21 s     (38.4 %), step = 500 ms          (1 %)
    tran: time = 21.71 s     (43.4 %), step = 500 ms          (1 %)
    tran: time = 24.21 s     (48.4 %), step = 500 ms          (1 %)
    tran: time = 26.71 s     (53.4 %), step = 500 ms          (1 %)
    tran: time = 29.21 s     (58.4 %), step = 500 ms          (1 %)
    tran: time = 31.71 s     (63.4 %), step = 500 ms          (1 %)
    tran: time = 34.21 s     (68.4 %), step = 500 ms          (1 %)
    tran: time = 36.71 s     (73.4 %), step = 500 ms          (1 %)
    tran: time = 39.21 s     (78.4 %), step = 500 ms          (1 %)
    tran: time = 41.71 s     (83.4 %), step = 500 ms          (1 %)
    tran: time = 44.21 s     (88.4 %), step = 500 ms          (1 %)
    tran: time = 46.71 s     (93.4 %), step = 500 ms          (1 %)
    tran: time = 49.21 s     (98.4 %), step = 500 ms          (1 %)
Number of accepted tran steps =             719

Maximum value achieved for any signal of each quantity: 
V: V(vout_filt) = 3.3 V
I: I(V8:p) = 6.512 uA

~~~~~~~~~~~~~~~~~~~~~~~~~~~~~~~~~
Post-Transient Simulation Summary
~~~~~~~~~~~~~~~~~~~~~~~~~~~~~~~~~
   -   To further speed up simulation, consider
          add ++aps on command line
   -   Non-default settings that could significantly slow down simulation
          errpreset = conservative, default moderate
          reltol = 10e-06, default 100e-06 (conservative)
~~~~~~~~~~~~~~~~~~~~~~~~~~~~~~~~~


During simulation, the CPU load for active processors is :
         0 (11.4 %)      1 (52.7 %)      2 (32.0 %)      3 (31.2 %)
         4 (34.2 %)      5 (64.8 %)      6 (7.0 %)       7 (100.0 %)
         8 (5.2 %)       9 (42.3 %)     10 (64.0 %)     11 (6.2 %)
        12 (27.8 %)     13 (45.2 %)     14 (38.3 %)     15 (23.3 %)
        16 (32.6 %)     17 (76.5 %)     18 (37.0 %)     19 (29.3 %)
        20 (34.1 %)     21 (24.5 %)     22 (41.3 %)     23 (43.1 %)
        24 (11.7 %)     25 (84.3 %)     26 (14.0 %)     27 (38.1 %)
        28 (74.7 %)     29 (76.4 %)     30 (31.4 %)     31 (12.2 %)
        32 (94.6 %)     33 (79.3 %)     34 (5.6 %)      35 (9.3 %)
        36 (100.0 %)    37 (25.0 %)     38 (18.2 %)     39 (22.5 %)
        40 (100.0 %)    41 (22.3 %)     42 (13.3 %)     43 (46.9 %)
        44 (56.0 %)     45 (8.2 %)      46 (25.1 %)     47 (24.1 %)
        Total: 1897.3%
Initial condition solution time: CPU = 2.214 ms, elapsed = 2.2161 ms.
Intrinsic tran analysis time:    CPU = 396.678 ms, elapsed = 398.184 ms.
Total time required for tran analysis `tran': CPU = 401.26 ms, elapsed = 403.449 ms, util. = 99.5%.
Time accumulated: CPU = 2.03095 s, elapsed = 2.96012 s.
Peak resident memory used = 212 Mbytes.


Notice from spectre during transient analysis `tran', during Monte Carlo analysis `mc1'.
    34 warnings suppressed.

finalTimeOP: writing operating point information to rawfile.

Opening the PSF file ../psf/mc1_separate/028/finalTimeOP.info ...
modelParameter: writing model parameter values to rawfile.

Opening the PSF file ../psf/mc1_separate/028/modelParameter.info ...
element: writing instance parameter values to rawfile.

Opening the PSF file ../psf/mc1_separate/028/element.info ...
outputParameter: writing output parameter values to rawfile.

Opening the PSF file ../psf/mc1_separate/028/outputParameter.info ...
designParamVals: writing netlist parameters to rawfile.

Opening the PSFASCII file ../psf/mc1_separate/028/designParamVals.info ...
primitives: writing primitives to rawfile.

Opening the PSFASCII file ../psf/mc1_separate/028/primitives.info.primitives ...
subckts: writing subcircuits to rawfile.

Opening the PSFASCII file ../psf/mc1_separate/028/subckts.info.subckts ...
    mc1: iteration = 28          (8.33 %), step = 1            (4.17 %)
29  12.50% 

*****************************************************************************************
* 
* INFO: AMS_processOption = C35B4C3
* 
* INFO: Valid Modules  PIP VG5 HIRES
* 
*****************************************************************************************


Notice from spectre during Monte Carlo analysis `mc1'.
    V8: `period' has the unusually large value of 100 s.


***********************************************
Transient Analysis `tran': time = (0 s -> 50 s)
***********************************************

Opening the PSF file ../psf/mc1_separate/029/tran.tran.tran ...

Warning from spectre during check, during IC analysis, during transient analysis `tran', during Monte Carlo analysis `mc1'.
    WARNING (CMI-2943): Parameter checks have been ignored because the valid value for parameter 'trise' could not be found in 'C1'.
    WARNING (CMI-2943): Parameter checks have been ignored because the valid value for parameter 'trise' could not be found in 'I0.R2.CM'.
    WARNING (CMI-2943): Parameter checks have been ignored because the valid value for parameter 'trise' could not be found in 'I0.R2.CS1'.
    WARNING (CMI-2943): Parameter checks have been ignored because the valid value for parameter 'trise' could not be found in 'I0.R2.CS0'.
    WARNING (CMI-2943): Parameter checks have been ignored because the valid value for parameter 'trise' could not be found in 'I0.C8<3>.C1'.
        Further occurrences of this warning will be suppressed.

Convergence achieved in 12 iterations.
DC simulation time: CPU = 2.285 ms, elapsed = 2.28596 ms.
Important parameter values:
    start = 0 s
    outputstart = 0 s
    stop = 50 s
    step = 50 ms
    maxstep = 500 ms
    ic = all
    useprevic = no
    skipdc = no
    reltol = 10e-06
    abstol(V) = 1 uV
    abstol(I) = 1 pA
    temp = 27 C
    tnom = 27 C
    tempeffects = all
    errpreset = conservative
    method = gear2only
    lteratio = 10
    relref = alllocal
    cmin = 0 F
    gmin = 1 pS
    rabsshort = 1 mOhm


Notice from spectre during transient analysis `tran', during Monte Carlo analysis `mc1'.
    Multithreading is disabled due to the size of the design being too small.


Output and IC/nodeset summary:
                 save   8       (current)
                 save   87      (voltage)

    tran: time = 1.288 s     (2.58 %), step = 112.2 ms     (224 m%)
    tran: time = 4.02 s      (8.04 %), step = 364.5 ms     (729 m%)
    tran: time = 6.315 s     (12.6 %), step = 500 ms          (1 %)
    tran: time = 8.815 s     (17.6 %), step = 500 ms          (1 %)
    tran: time = 11.31 s     (22.6 %), step = 500 ms          (1 %)
    tran: time = 13.81 s     (27.6 %), step = 500 ms          (1 %)
    tran: time = 16.31 s     (32.6 %), step = 500 ms          (1 %)
    tran: time = 18.81 s     (37.6 %), step = 500 ms          (1 %)
    tran: time = 21.31 s     (42.6 %), step = 500 ms          (1 %)
    tran: time = 23.81 s     (47.6 %), step = 500 ms          (1 %)
    tran: time = 26.31 s     (52.6 %), step = 500 ms          (1 %)
    tran: time = 28.81 s     (57.6 %), step = 500 ms          (1 %)
    tran: time = 31.31 s     (62.6 %), step = 500 ms          (1 %)
    tran: time = 33.81 s     (67.6 %), step = 500 ms          (1 %)
    tran: time = 36.31 s     (72.6 %), step = 500 ms          (1 %)
    tran: time = 38.81 s     (77.6 %), step = 500 ms          (1 %)
    tran: time = 41.31 s     (82.6 %), step = 500 ms          (1 %)
    tran: time = 43.81 s     (87.6 %), step = 500 ms          (1 %)
    tran: time = 46.31 s     (92.6 %), step = 500 ms          (1 %)
    tran: time = 48.81 s     (97.6 %), step = 500 ms          (1 %)
Number of accepted tran steps =             746

Maximum value achieved for any signal of each quantity: 
V: V(vout) = 3.3 V
I: I(V8:p) = 6.557 uA

~~~~~~~~~~~~~~~~~~~~~~~~~~~~~~~~~
Post-Transient Simulation Summary
~~~~~~~~~~~~~~~~~~~~~~~~~~~~~~~~~
   -   To further speed up simulation, consider
          add ++aps on command line
   -   Non-default settings that could significantly slow down simulation
          errpreset = conservative, default moderate
          reltol = 10e-06, default 100e-06 (conservative)
~~~~~~~~~~~~~~~~~~~~~~~~~~~~~~~~~


During simulation, the CPU load for active processors is :
         0 (11.4 %)      1 (58.9 %)      2 (41.1 %)      3 (26.9 %)
         4 (43.2 %)      5 (69.2 %)      6 (7.5 %)       7 (100.0 %)
         8 (6.1 %)       9 (37.0 %)     10 (55.5 %)     11 (6.0 %)
        12 (27.9 %)     13 (52.2 %)     14 (46.9 %)     15 (34.5 %)
        16 (29.1 %)     17 (67.2 %)     18 (45.8 %)     19 (27.4 %)
        20 (43.1 %)     21 (21.7 %)     22 (36.7 %)     23 (37.1 %)
        24 (11.1 %)     25 (73.8 %)     26 (13.3 %)     27 (33.1 %)
        28 (66.6 %)     29 (79.5 %)     30 (33.2 %)     31 (12.3 %)
        32 (88.5 %)     33 (82.2 %)     34 (6.1 %)      35 (20.1 %)
        36 (100.0 %)    37 (35.1 %)     38 (16.3 %)     39 (33.4 %)
        40 (100.0 %)    41 (22.3 %)     42 (11.8 %)     43 (41.8 %)
        44 (48.6 %)     45 (7.7 %)      46 (35.6 %)     47 (23.3 %)
        Total: 1927.9%
Initial condition solution time: CPU = 2.331 ms, elapsed = 2.33197 ms.
Intrinsic tran analysis time:    CPU = 401.65 ms, elapsed = 402.952 ms.
Total time required for tran analysis `tran': CPU = 406.071 ms, elapsed = 407.971 ms, util. = 99.5%.
Time accumulated: CPU = 2.47756 s, elapsed = 3.41919 s.
Peak resident memory used = 213 Mbytes.


Notice from spectre during transient analysis `tran', during Monte Carlo analysis `mc1'.
    34 warnings suppressed.

finalTimeOP: writing operating point information to rawfile.

Opening the PSF file ../psf/mc1_separate/029/finalTimeOP.info ...
modelParameter: writing model parameter values to rawfile.

Opening the PSF file ../psf/mc1_separate/029/modelParameter.info ...
element: writing instance parameter values to rawfile.

Opening the PSF file ../psf/mc1_separate/029/element.info ...
outputParameter: writing output parameter values to rawfile.

Opening the PSF file ../psf/mc1_separate/029/outputParameter.info ...
designParamVals: writing netlist parameters to rawfile.

Opening the PSFASCII file ../psf/mc1_separate/029/designParamVals.info ...
primitives: writing primitives to rawfile.

Opening the PSFASCII file ../psf/mc1_separate/029/primitives.info.primitives ...
subckts: writing subcircuits to rawfile.

Opening the PSFASCII file ../psf/mc1_separate/029/subckts.info.subckts ...
    mc1: iteration = 29          (12.5 %), step = 1            (4.17 %)
30  16.67% 

*****************************************************************************************
* 
* INFO: AMS_processOption = C35B4C3
* 
* INFO: Valid Modules  PIP VG5 HIRES
* 
*****************************************************************************************


Notice from spectre during Monte Carlo analysis `mc1'.
    V8: `period' has the unusually large value of 100 s.


***********************************************
Transient Analysis `tran': time = (0 s -> 50 s)
***********************************************

Opening the PSF file ../psf/mc1_separate/030/tran.tran.tran ...

Warning from spectre during check, during IC analysis, during transient analysis `tran', during Monte Carlo analysis `mc1'.
    WARNING (CMI-2943): Parameter checks have been ignored because the valid value for parameter 'trise' could not be found in 'C1'.
    WARNING (CMI-2943): Parameter checks have been ignored because the valid value for parameter 'trise' could not be found in 'I0.R2.CM'.
    WARNING (CMI-2943): Parameter checks have been ignored because the valid value for parameter 'trise' could not be found in 'I0.R2.CS1'.
    WARNING (CMI-2943): Parameter checks have been ignored because the valid value for parameter 'trise' could not be found in 'I0.R2.CS0'.
    WARNING (CMI-2943): Parameter checks have been ignored because the valid value for parameter 'trise' could not be found in 'I0.C8<3>.C1'.
        Further occurrences of this warning will be suppressed.

Convergence achieved in 12 iterations.
DC simulation time: CPU = 2.401 ms, elapsed = 2.40088 ms.
Important parameter values:
    start = 0 s
    outputstart = 0 s
    stop = 50 s
    step = 50 ms
    maxstep = 500 ms
    ic = all
    useprevic = no
    skipdc = no
    reltol = 10e-06
    abstol(V) = 1 uV
    abstol(I) = 1 pA
    temp = 27 C
    tnom = 27 C
    tempeffects = all
    errpreset = conservative
    method = gear2only
    lteratio = 10
    relref = alllocal
    cmin = 0 F
    gmin = 1 pS
    rabsshort = 1 mOhm


Notice from spectre during transient analysis `tran', during Monte Carlo analysis `mc1'.
    Multithreading is disabled due to the size of the design being too small.


Output and IC/nodeset summary:
                 save   8       (current)
                 save   87      (voltage)

    tran: time = 1.302 s      (2.6 %), step = 121.3 ms     (243 m%)
    tran: time = 3.875 s     (7.75 %), step = 364.1 ms     (728 m%)
    tran: time = 6.685 s     (13.4 %), step = 500 ms          (1 %)
    tran: time = 9.185 s     (18.4 %), step = 500 ms          (1 %)
    tran: time = 11.69 s     (23.4 %), step = 500 ms          (1 %)
    tran: time = 14.19 s     (28.4 %), step = 500 ms          (1 %)
    tran: time = 16.69 s     (33.4 %), step = 500 ms          (1 %)
    tran: time = 19.19 s     (38.4 %), step = 500 ms          (1 %)
    tran: time = 21.69 s     (43.4 %), step = 500 ms          (1 %)
    tran: time = 24.19 s     (48.4 %), step = 500 ms          (1 %)
    tran: time = 26.69 s     (53.4 %), step = 500 ms          (1 %)
    tran: time = 29.19 s     (58.4 %), step = 500 ms          (1 %)
    tran: time = 31.69 s     (63.4 %), step = 500 ms          (1 %)
    tran: time = 34.19 s     (68.4 %), step = 500 ms          (1 %)
    tran: time = 36.69 s     (73.4 %), step = 500 ms          (1 %)
    tran: time = 39.19 s     (78.4 %), step = 500 ms          (1 %)
    tran: time = 41.69 s     (83.4 %), step = 500 ms          (1 %)
    tran: time = 44.19 s     (88.4 %), step = 500 ms          (1 %)
    tran: time = 46.69 s     (93.4 %), step = 500 ms          (1 %)
    tran: time = 49.19 s     (98.4 %), step = 500 ms          (1 %)
Number of accepted tran steps =             735

Maximum value achieved for any signal of each quantity: 
V: V(S<0>) = 3.3 V
I: I(V8:p) = 6.498 uA

~~~~~~~~~~~~~~~~~~~~~~~~~~~~~~~~~
Post-Transient Simulation Summary
~~~~~~~~~~~~~~~~~~~~~~~~~~~~~~~~~
   -   To further speed up simulation, consider
          add ++aps on command line
   -   Non-default settings that could significantly slow down simulation
          errpreset = conservative, default moderate
          reltol = 10e-06, default 100e-06 (conservative)
~~~~~~~~~~~~~~~~~~~~~~~~~~~~~~~~~


During simulation, the CPU load for active processors is :
         0 (12.5 %)      1 (63.9 %)      2 (48.1 %)      3 (24.5 %)
         4 (50.1 %)      5 (72.5 %)      6 (7.9 %)       7 (100.0 %)
         8 (6.1 %)       9 (34.0 %)     10 (51.1 %)     11 (8.0 %)
        12 (26.1 %)     13 (57.2 %)     14 (53.3 %)     15 (32.4 %)
        16 (27.0 %)     17 (61.0 %)     18 (50.1 %)     19 (33.6 %)
        20 (45.5 %)     21 (22.6 %)     22 (38.2 %)     23 (34.7 %)
        24 (11.9 %)     25 (75.9 %)     26 (12.2 %)     27 (29.9 %)
        28 (59.3 %)     29 (81.0 %)     30 (40.7 %)     31 (14.1 %)
        32 (79.3 %)     33 (84.5 %)     34 (6.4 %)      35 (28.9 %)
        36 (100.0 %)    37 (35.0 %)     38 (15.2 %)     39 (41.6 %)
        40 (100.0 %)    41 (23.6 %)     42 (19.5 %)     43 (39.9 %)
        44 (45.2 %)     45 (7.1 %)      46 (43.1 %)     47 (22.4 %)
        Total: 1977.2%
Initial condition solution time: CPU = 2.436 ms, elapsed = 2.43807 ms.
Intrinsic tran analysis time:    CPU = 397.503 ms, elapsed = 398.792 ms.
Total time required for tran analysis `tran': CPU = 402.246 ms, elapsed = 404.448 ms, util. = 99.5%.
Time accumulated: CPU = 2.91998 s, elapsed = 3.87384 s.
Peak resident memory used = 213 Mbytes.


Notice from spectre during transient analysis `tran', during Monte Carlo analysis `mc1'.
    34 warnings suppressed.

finalTimeOP: writing operating point information to rawfile.

Opening the PSF file ../psf/mc1_separate/030/finalTimeOP.info ...
modelParameter: writing model parameter values to rawfile.

Opening the PSF file ../psf/mc1_separate/030/modelParameter.info ...
element: writing instance parameter values to rawfile.

Opening the PSF file ../psf/mc1_separate/030/element.info ...
outputParameter: writing output parameter values to rawfile.

Opening the PSF file ../psf/mc1_separate/030/outputParameter.info ...
designParamVals: writing netlist parameters to rawfile.

Opening the PSFASCII file ../psf/mc1_separate/030/designParamVals.info ...
primitives: writing primitives to rawfile.

Opening the PSFASCII file ../psf/mc1_separate/030/primitives.info.primitives ...
subckts: writing subcircuits to rawfile.

Opening the PSFASCII file ../psf/mc1_separate/030/subckts.info.subckts ...
    mc1: iteration = 30          (16.7 %), step = 1            (4.17 %)
31  20.83% 

*****************************************************************************************
* 
* INFO: AMS_processOption = C35B4C3
* 
* INFO: Valid Modules  PIP VG5 HIRES
* 
*****************************************************************************************


Notice from spectre during Monte Carlo analysis `mc1'.
    V8: `period' has the unusually large value of 100 s.


***********************************************
Transient Analysis `tran': time = (0 s -> 50 s)
***********************************************

Opening the PSF file ../psf/mc1_separate/031/tran.tran.tran ...

Warning from spectre during check, during IC analysis, during transient analysis `tran', during Monte Carlo analysis `mc1'.
    WARNING (CMI-2943): Parameter checks have been ignored because the valid value for parameter 'trise' could not be found in 'C1'.
    WARNING (CMI-2943): Parameter checks have been ignored because the valid value for parameter 'trise' could not be found in 'I0.R2.CM'.
    WARNING (CMI-2943): Parameter checks have been ignored because the valid value for parameter 'trise' could not be found in 'I0.R2.CS1'.
    WARNING (CMI-2943): Parameter checks have been ignored because the valid value for parameter 'trise' could not be found in 'I0.R2.CS0'.
    WARNING (CMI-2943): Parameter checks have been ignored because the valid value for parameter 'trise' could not be found in 'I0.C8<3>.C1'.
        Further occurrences of this warning will be suppressed.

Convergence achieved in 12 iterations.
DC simulation time: CPU = 2.442 ms, elapsed = 2.44212 ms.
Important parameter values:
    start = 0 s
    outputstart = 0 s
    stop = 50 s
    step = 50 ms
    maxstep = 500 ms
    ic = all
    useprevic = no
    skipdc = no
    reltol = 10e-06
    abstol(V) = 1 uV
    abstol(I) = 1 pA
    temp = 27 C
    tnom = 27 C
    tempeffects = all
    errpreset = conservative
    method = gear2only
    lteratio = 10
    relref = alllocal
    cmin = 0 F
    gmin = 1 pS
    rabsshort = 1 mOhm


Notice from spectre during transient analysis `tran', during Monte Carlo analysis `mc1'.
    Multithreading is disabled due to the size of the design being too small.


Output and IC/nodeset summary:
                 save   8       (current)
                 save   87      (voltage)

    tran: time = 1.252 s      (2.5 %), step = 12.29 ms    (24.6 m%)
    tran: time = 3.94 s      (7.88 %), step = 266.8 ms     (534 m%)
    tran: time = 6.664 s     (13.3 %), step = 485.6 ms     (971 m%)
    tran: time = 9.164 s     (18.3 %), step = 500 ms          (1 %)
    tran: time = 11.66 s     (23.3 %), step = 500 ms          (1 %)
    tran: time = 14.16 s     (28.3 %), step = 500 ms          (1 %)
    tran: time = 16.66 s     (33.3 %), step = 500 ms          (1 %)
    tran: time = 19.16 s     (38.3 %), step = 500 ms          (1 %)
    tran: time = 21.66 s     (43.3 %), step = 500 ms          (1 %)
    tran: time = 24.16 s     (48.3 %), step = 500 ms          (1 %)
    tran: time = 26.66 s     (53.3 %), step = 500 ms          (1 %)
    tran: time = 29.16 s     (58.3 %), step = 500 ms          (1 %)
    tran: time = 31.66 s     (63.3 %), step = 500 ms          (1 %)
    tran: time = 34.16 s     (68.3 %), step = 500 ms          (1 %)
    tran: time = 36.66 s     (73.3 %), step = 500 ms          (1 %)
    tran: time = 39.16 s     (78.3 %), step = 500 ms          (1 %)
    tran: time = 41.66 s     (83.3 %), step = 500 ms          (1 %)
    tran: time = 44.16 s     (88.3 %), step = 500 ms          (1 %)
    tran: time = 46.66 s     (93.3 %), step = 500 ms          (1 %)
    tran: time = 49.16 s     (98.3 %), step = 500 ms          (1 %)
Number of accepted tran steps =             745

Maximum value achieved for any signal of each quantity: 
V: V(vout_filt) = 3.3 V
I: I(V8:p) = 6.415 uA

~~~~~~~~~~~~~~~~~~~~~~~~~~~~~~~~~
Post-Transient Simulation Summary
~~~~~~~~~~~~~~~~~~~~~~~~~~~~~~~~~
   -   To further speed up simulation, consider
          add ++aps on command line
   -   Non-default settings that could significantly slow down simulation
          errpreset = conservative, default moderate
          reltol = 10e-06, default 100e-06 (conservative)
~~~~~~~~~~~~~~~~~~~~~~~~~~~~~~~~~


During simulation, the CPU load for active processors is :
         0 (12.3 %)      1 (68.0 %)      2 (44.7 %)      3 (22.4 %)
         4 (54.8 %)      5 (74.9 %)      6 (7.8 %)       7 (100.0 %)
         8 (6.9 %)       9 (40.2 %)     10 (47.2 %)     11 (7.6 %)
        12 (25.8 %)     13 (51.7 %)     14 (57.9 %)     15 (29.8 %)
        16 (25.1 %)     17 (55.7 %)     18 (46.4 %)     19 (40.2 %)
        20 (51.6 %)     21 (21.5 %)     22 (45.1 %)     23 (36.8 %)
        24 (21.7 %)     25 (78.3 %)     26 (17.2 %)     27 (30.6 %)
        28 (53.6 %)     29 (72.8 %)     30 (36.9 %)     31 (23.6 %)
        32 (72.3 %)     33 (86.2 %)     34 (7.0 %)      35 (36.6 %)
        36 (100.0 %)    37 (33.3 %)     38 (15.2 %)     39 (40.6 %)
        40 (100.0 %)    41 (22.8 %)     42 (28.6 %)     43 (37.3 %)
        44 (47.8 %)     45 (8.0 %)      46 (49.0 %)     47 (21.2 %)
        Total: 2015.2%
Initial condition solution time: CPU = 2.482 ms, elapsed = 2.48408 ms.
Intrinsic tran analysis time:    CPU = 402.334 ms, elapsed = 403.793 ms.
Total time required for tran analysis `tran': CPU = 407.534 ms, elapsed = 409.648 ms, util. = 99.5%.
Time accumulated: CPU = 3.36827 s, elapsed = 4.33494 s.
Peak resident memory used = 213 Mbytes.


Notice from spectre during transient analysis `tran', during Monte Carlo analysis `mc1'.
    34 warnings suppressed.

finalTimeOP: writing operating point information to rawfile.

Opening the PSF file ../psf/mc1_separate/031/finalTimeOP.info ...
modelParameter: writing model parameter values to rawfile.

Opening the PSF file ../psf/mc1_separate/031/modelParameter.info ...
element: writing instance parameter values to rawfile.

Opening the PSF file ../psf/mc1_separate/031/element.info ...
outputParameter: writing output parameter values to rawfile.

Opening the PSF file ../psf/mc1_separate/031/outputParameter.info ...
designParamVals: writing netlist parameters to rawfile.

Opening the PSFASCII file ../psf/mc1_separate/031/designParamVals.info ...
primitives: writing primitives to rawfile.

Opening the PSFASCII file ../psf/mc1_separate/031/primitives.info.primitives ...
subckts: writing subcircuits to rawfile.

Opening the PSFASCII file ../psf/mc1_separate/031/subckts.info.subckts ...
    mc1: iteration = 31          (20.8 %), step = 1            (4.17 %)
32  25.00% 

*****************************************************************************************
* 
* INFO: AMS_processOption = C35B4C3
* 
* INFO: Valid Modules  PIP VG5 HIRES
* 
*****************************************************************************************


Notice from spectre during Monte Carlo analysis `mc1'.
    V8: `period' has the unusually large value of 100 s.


***********************************************
Transient Analysis `tran': time = (0 s -> 50 s)
***********************************************

Opening the PSF file ../psf/mc1_separate/032/tran.tran.tran ...

Warning from spectre during check, during IC analysis, during transient analysis `tran', during Monte Carlo analysis `mc1'.
    WARNING (CMI-2943): Parameter checks have been ignored because the valid value for parameter 'trise' could not be found in 'C1'.
    WARNING (CMI-2943): Parameter checks have been ignored because the valid value for parameter 'trise' could not be found in 'I0.R2.CM'.
    WARNING (CMI-2943): Parameter checks have been ignored because the valid value for parameter 'trise' could not be found in 'I0.R2.CS1'.
    WARNING (CMI-2943): Parameter checks have been ignored because the valid value for parameter 'trise' could not be found in 'I0.R2.CS0'.
    WARNING (CMI-2943): Parameter checks have been ignored because the valid value for parameter 'trise' could not be found in 'I0.C8<3>.C1'.
        Further occurrences of this warning will be suppressed.

Convergence achieved in 12 iterations.
DC simulation time: CPU = 2.289 ms, elapsed = 2.28882 ms.
Important parameter values:
    start = 0 s
    outputstart = 0 s
    stop = 50 s
    step = 50 ms
    maxstep = 500 ms
    ic = all
    useprevic = no
    skipdc = no
    reltol = 10e-06
    abstol(V) = 1 uV
    abstol(I) = 1 pA
    temp = 27 C
    tnom = 27 C
    tempeffects = all
    errpreset = conservative
    method = gear2only
    lteratio = 10
    relref = alllocal
    cmin = 0 F
    gmin = 1 pS
    rabsshort = 1 mOhm


Notice from spectre during transient analysis `tran', during Monte Carlo analysis `mc1'.
    Multithreading is disabled due to the size of the design being too small.


Output and IC/nodeset summary:
                 save   8       (current)
                 save   87      (voltage)

    tran: time = 1.316 s     (2.63 %), step = 104.5 ms     (209 m%)
    tran: time = 3.839 s     (7.68 %), step = 100.8 ms     (202 m%)
    tran: time = 6.359 s     (12.7 %), step = 347.5 ms     (695 m%)
    tran: time = 9.08 s      (18.2 %), step = 500 ms          (1 %)
    tran: time = 11.58 s     (23.2 %), step = 500 ms          (1 %)
    tran: time = 14.08 s     (28.2 %), step = 500 ms          (1 %)
    tran: time = 16.58 s     (33.2 %), step = 500 ms          (1 %)
    tran: time = 19.08 s     (38.2 %), step = 500 ms          (1 %)
    tran: time = 21.58 s     (43.2 %), step = 500 ms          (1 %)
    tran: time = 24.08 s     (48.2 %), step = 500 ms          (1 %)
    tran: time = 26.58 s     (53.2 %), step = 500 ms          (1 %)
    tran: time = 29.08 s     (58.2 %), step = 500 ms          (1 %)
    tran: time = 31.58 s     (63.2 %), step = 500 ms          (1 %)
    tran: time = 34.08 s     (68.2 %), step = 500 ms          (1 %)
    tran: time = 36.58 s     (73.2 %), step = 500 ms          (1 %)
    tran: time = 39.08 s     (78.2 %), step = 500 ms          (1 %)
    tran: time = 41.58 s     (83.2 %), step = 500 ms          (1 %)
    tran: time = 44.08 s     (88.2 %), step = 500 ms          (1 %)
    tran: time = 46.58 s     (93.2 %), step = 500 ms          (1 %)
    tran: time = 49.08 s     (98.2 %), step = 500 ms          (1 %)
Number of accepted tran steps =             736

Maximum value achieved for any signal of each quantity: 
V: V(vout_filt) = 3.3 V
I: I(V8:p) = 6.359 uA

~~~~~~~~~~~~~~~~~~~~~~~~~~~~~~~~~
Post-Transient Simulation Summary
~~~~~~~~~~~~~~~~~~~~~~~~~~~~~~~~~
   -   To further speed up simulation, consider
          add ++aps on command line
   -   Non-default settings that could significantly slow down simulation
          errpreset = conservative, default moderate
          reltol = 10e-06, default 100e-06 (conservative)
~~~~~~~~~~~~~~~~~~~~~~~~~~~~~~~~~


During simulation, the CPU load for active processors is :
         0 (12.1 %)      1 (71.2 %)      2 (41.1 %)      3 (20.8 %)
         4 (59.3 %)      5 (77.2 %)      6 (7.5 %)       7 (100.0 %)
         8 (6.2 %)       9 (45.8 %)     10 (42.8 %)     11 (6.9 %)
        12 (24.7 %)     13 (47.4 %)     14 (52.3 %)     15 (36.2 %)
        16 (25.7 %)     17 (50.8 %)     18 (51.6 %)     19 (44.2 %)
        20 (54.0 %)     21 (20.0 %)     22 (50.3 %)     23 (34.1 %)
        24 (29.6 %)     25 (79.7 %)     26 (23.3 %)     27 (32.0 %)
        28 (51.0 %)     29 (66.1 %)     30 (33.6 %)     31 (31.1 %)
        32 (65.5 %)     33 (87.6 %)     34 (6.5 %)      35 (37.7 %)
        36 (100.0 %)    37 (30.6 %)     38 (23.4 %)     39 (37.3 %)
        40 (100.0 %)    41 (22.6 %)     42 (35.0 %)     43 (35.1 %)
        44 (48.0 %)     45 (7.9 %)      46 (50.3 %)     47 (20.2 %)
        Total: 2036.5%
Initial condition solution time: CPU = 2.326 ms, elapsed = 2.32697 ms.
Intrinsic tran analysis time:    CPU = 394.401 ms, elapsed = 395.789 ms.
Total time required for tran analysis `tran': CPU = 398.977 ms, elapsed = 401.003 ms, util. = 99.5%.
Time accumulated: CPU = 3.81041 s, elapsed = 4.79033 s.
Peak resident memory used = 213 Mbytes.


Notice from spectre during transient analysis `tran', during Monte Carlo analysis `mc1'.
    34 warnings suppressed.

finalTimeOP: writing operating point information to rawfile.

Opening the PSF file ../psf/mc1_separate/032/finalTimeOP.info ...
modelParameter: writing model parameter values to rawfile.

Opening the PSF file ../psf/mc1_separate/032/modelParameter.info ...
element: writing instance parameter values to rawfile.

Opening the PSF file ../psf/mc1_separate/032/element.info ...
outputParameter: writing output parameter values to rawfile.

Opening the PSF file ../psf/mc1_separate/032/outputParameter.info ...
designParamVals: writing netlist parameters to rawfile.

Opening the PSFASCII file ../psf/mc1_separate/032/designParamVals.info ...
primitives: writing primitives to rawfile.

Opening the PSFASCII file ../psf/mc1_separate/032/primitives.info.primitives ...
subckts: writing subcircuits to rawfile.

Opening the PSFASCII file ../psf/mc1_separate/032/subckts.info.subckts ...
    mc1: iteration = 32            (25 %), step = 1            (4.17 %)
33  29.17% 

*****************************************************************************************
* 
* INFO: AMS_processOption = C35B4C3
* 
* INFO: Valid Modules  PIP VG5 HIRES
* 
*****************************************************************************************


Notice from spectre during Monte Carlo analysis `mc1'.
    V8: `period' has the unusually large value of 100 s.


***********************************************
Transient Analysis `tran': time = (0 s -> 50 s)
***********************************************

Opening the PSF file ../psf/mc1_separate/033/tran.tran.tran ...

Warning from spectre during check, during IC analysis, during transient analysis `tran', during Monte Carlo analysis `mc1'.
    WARNING (CMI-2943): Parameter checks have been ignored because the valid value for parameter 'trise' could not be found in 'C1'.
    WARNING (CMI-2943): Parameter checks have been ignored because the valid value for parameter 'trise' could not be found in 'I0.R2.CM'.
    WARNING (CMI-2943): Parameter checks have been ignored because the valid value for parameter 'trise' could not be found in 'I0.R2.CS1'.
    WARNING (CMI-2943): Parameter checks have been ignored because the valid value for parameter 'trise' could not be found in 'I0.R2.CS0'.
    WARNING (CMI-2943): Parameter checks have been ignored because the valid value for parameter 'trise' could not be found in 'I0.C8<3>.C1'.
        Further occurrences of this warning will be suppressed.

Convergence achieved in 12 iterations.
DC simulation time: CPU = 2.303 ms, elapsed = 2.30289 ms.
Important parameter values:
    start = 0 s
    outputstart = 0 s
    stop = 50 s
    step = 50 ms
    maxstep = 500 ms
    ic = all
    useprevic = no
    skipdc = no
    reltol = 10e-06
    abstol(V) = 1 uV
    abstol(I) = 1 pA
    temp = 27 C
    tnom = 27 C
    tempeffects = all
    errpreset = conservative
    method = gear2only
    lteratio = 10
    relref = alllocal
    cmin = 0 F
    gmin = 1 pS
    rabsshort = 1 mOhm


Notice from spectre during transient analysis `tran', during Monte Carlo analysis `mc1'.
    Multithreading is disabled due to the size of the design being too small.


Output and IC/nodeset summary:
                 save   8       (current)
                 save   87      (voltage)

    tran: time = 1.358 s     (2.72 %), step = 118.5 ms     (237 m%)
    tran: time = 3.896 s     (7.79 %), step = 361.9 ms     (724 m%)
    tran: time = 6.703 s     (13.4 %), step = 500 ms          (1 %)
    tran: time = 9.203 s     (18.4 %), step = 500 ms          (1 %)
    tran: time = 11.7 s      (23.4 %), step = 500 ms          (1 %)
    tran: time = 14.2 s      (28.4 %), step = 500 ms          (1 %)
    tran: time = 16.7 s      (33.4 %), step = 500 ms          (1 %)
    tran: time = 19.2 s      (38.4 %), step = 500 ms          (1 %)
    tran: time = 21.7 s      (43.4 %), step = 500 ms          (1 %)
    tran: time = 24.2 s      (48.4 %), step = 500 ms          (1 %)
    tran: time = 26.7 s      (53.4 %), step = 500 ms          (1 %)
    tran: time = 29.2 s      (58.4 %), step = 500 ms          (1 %)
    tran: time = 31.7 s      (63.4 %), step = 500 ms          (1 %)
    tran: time = 34.2 s      (68.4 %), step = 500 ms          (1 %)
    tran: time = 36.7 s      (73.4 %), step = 500 ms          (1 %)
    tran: time = 39.2 s      (78.4 %), step = 500 ms          (1 %)
    tran: time = 41.7 s      (83.4 %), step = 500 ms          (1 %)
    tran: time = 44.2 s      (88.4 %), step = 500 ms          (1 %)
    tran: time = 46.7 s      (93.4 %), step = 500 ms          (1 %)
    tran: time = 49.2 s      (98.4 %), step = 500 ms          (1 %)
Number of accepted tran steps =             741

Maximum value achieved for any signal of each quantity: 
V: V(S<0>) = 3.3 V
I: I(V8:p) = 6.494 uA

~~~~~~~~~~~~~~~~~~~~~~~~~~~~~~~~~
Post-Transient Simulation Summary
~~~~~~~~~~~~~~~~~~~~~~~~~~~~~~~~~
   -   To further speed up simulation, consider
          add ++aps on command line
   -   Non-default settings that could significantly slow down simulation
          errpreset = conservative, default moderate
          reltol = 10e-06, default 100e-06 (conservative)
~~~~~~~~~~~~~~~~~~~~~~~~~~~~~~~~~


During simulation, the CPU load for active processors is :
         0 (11.9 %)      1 (73.8 %)      2 (37.7 %)      3 (21.9 %)
         4 (59.8 %)      5 (78.4 %)      6 (7.6 %)       7 (100.0 %)
         8 (14.4 %)      9 (42.5 %)     10 (39.7 %)     11 (7.2 %)
        12 (24.4 %)     13 (45.3 %)     14 (55.6 %)     15 (41.7 %)
        16 (25.5 %)     17 (46.8 %)     18 (56.0 %)     19 (40.6 %)
        20 (52.0 %)     21 (24.6 %)     22 (51.6 %)     23 (33.9 %)
        24 (35.9 %)     25 (81.6 %)     26 (21.6 %)     27 (37.7 %)
        28 (55.4 %)     29 (60.4 %)     30 (31.1 %)     31 (37.1 %)
        32 (59.9 %)     33 (88.7 %)     34 (5.9 %)      35 (34.5 %)
        36 (100.0 %)    37 (29.7 %)     38 (23.2 %)     39 (36.0 %)
        40 (100.0 %)    41 (21.4 %)     42 (40.7 %)     43 (36.1 %)
        44 (49.7 %)     45 (8.6 %)      46 (49.6 %)     47 (25.2 %)
        Total: 2063.2%
Initial condition solution time: CPU = 2.349 ms, elapsed = 2.35105 ms.
Intrinsic tran analysis time:    CPU = 400.002 ms, elapsed = 401.244 ms.
Total time required for tran analysis `tran': CPU = 405.038 ms, elapsed = 406.977 ms, util. = 99.5%.
Time accumulated: CPU = 4.25776 s, elapsed = 5.25118 s.
Peak resident memory used = 213 Mbytes.


Notice from spectre during transient analysis `tran', during Monte Carlo analysis `mc1'.
    34 warnings suppressed.

finalTimeOP: writing operating point information to rawfile.

Opening the PSF file ../psf/mc1_separate/033/finalTimeOP.info ...
modelParameter: writing model parameter values to rawfile.

Opening the PSF file ../psf/mc1_separate/033/modelParameter.info ...
element: writing instance parameter values to rawfile.

Opening the PSF file ../psf/mc1_separate/033/element.info ...
outputParameter: writing output parameter values to rawfile.

Opening the PSF file ../psf/mc1_separate/033/outputParameter.info ...
designParamVals: writing netlist parameters to rawfile.

Opening the PSFASCII file ../psf/mc1_separate/033/designParamVals.info ...
primitives: writing primitives to rawfile.

Opening the PSFASCII file ../psf/mc1_separate/033/primitives.info.primitives ...
subckts: writing subcircuits to rawfile.

Opening the PSFASCII file ../psf/mc1_separate/033/subckts.info.subckts ...
    mc1: iteration = 33          (29.2 %), step = 1            (4.17 %)
34  33.33% 

*****************************************************************************************
* 
* INFO: AMS_processOption = C35B4C3
* 
* INFO: Valid Modules  PIP VG5 HIRES
* 
*****************************************************************************************


Notice from spectre during Monte Carlo analysis `mc1'.
    V8: `period' has the unusually large value of 100 s.


***********************************************
Transient Analysis `tran': time = (0 s -> 50 s)
***********************************************

Opening the PSF file ../psf/mc1_separate/034/tran.tran.tran ...

Warning from spectre during check, during IC analysis, during transient analysis `tran', during Monte Carlo analysis `mc1'.
    WARNING (CMI-2943): Parameter checks have been ignored because the valid value for parameter 'trise' could not be found in 'C1'.
    WARNING (CMI-2943): Parameter checks have been ignored because the valid value for parameter 'trise' could not be found in 'I0.R2.CM'.
    WARNING (CMI-2943): Parameter checks have been ignored because the valid value for parameter 'trise' could not be found in 'I0.R2.CS1'.
    WARNING (CMI-2943): Parameter checks have been ignored because the valid value for parameter 'trise' could not be found in 'I0.R2.CS0'.
    WARNING (CMI-2943): Parameter checks have been ignored because the valid value for parameter 'trise' could not be found in 'I0.C8<3>.C1'.
        Further occurrences of this warning will be suppressed.

Convergence achieved in 12 iterations.
DC simulation time: CPU = 2.348 ms, elapsed = 2.3489 ms.
Important parameter values:
    start = 0 s
    outputstart = 0 s
    stop = 50 s
    step = 50 ms
    maxstep = 500 ms
    ic = all
    useprevic = no
    skipdc = no
    reltol = 10e-06
    abstol(V) = 1 uV
    abstol(I) = 1 pA
    temp = 27 C
    tnom = 27 C
    tempeffects = all
    errpreset = conservative
    method = gear2only
    lteratio = 10
    relref = alllocal
    cmin = 0 F
    gmin = 1 pS
    rabsshort = 1 mOhm


Notice from spectre during transient analysis `tran', during Monte Carlo analysis `mc1'.
    Multithreading is disabled due to the size of the design being too small.


Output and IC/nodeset summary:
                 save   8       (current)
                 save   87      (voltage)

    tran: time = 1.346 s     (2.69 %), step = 129.3 ms     (259 m%)
    tran: time = 4.066 s     (8.13 %), step = 380.4 ms     (761 m%)
    tran: time = 6.419 s     (12.8 %), step = 500 ms          (1 %)
    tran: time = 8.919 s     (17.8 %), step = 500 ms          (1 %)
    tran: time = 11.42 s     (22.8 %), step = 500 ms          (1 %)
    tran: time = 13.92 s     (27.8 %), step = 500 ms          (1 %)
    tran: time = 16.42 s     (32.8 %), step = 500 ms          (1 %)
    tran: time = 18.92 s     (37.8 %), step = 500 ms          (1 %)
    tran: time = 21.42 s     (42.8 %), step = 500 ms          (1 %)
    tran: time = 23.92 s     (47.8 %), step = 500 ms          (1 %)
    tran: time = 26.42 s     (52.8 %), step = 500 ms          (1 %)
    tran: time = 28.92 s     (57.8 %), step = 500 ms          (1 %)
    tran: time = 31.42 s     (62.8 %), step = 500 ms          (1 %)
    tran: time = 33.92 s     (67.8 %), step = 500 ms          (1 %)
    tran: time = 36.42 s     (72.8 %), step = 500 ms          (1 %)
    tran: time = 38.92 s     (77.8 %), step = 500 ms          (1 %)
    tran: time = 41.42 s     (82.8 %), step = 500 ms          (1 %)
    tran: time = 43.92 s     (87.8 %), step = 500 ms          (1 %)
    tran: time = 46.42 s     (92.8 %), step = 500 ms          (1 %)
    tran: time = 48.92 s     (97.8 %), step = 500 ms          (1 %)
Number of accepted tran steps =             750

Maximum value achieved for any signal of each quantity: 
V: V(vout) = 3.3 V
I: I(V8:p) = 6.432 uA

~~~~~~~~~~~~~~~~~~~~~~~~~~~~~~~~~
Post-Transient Simulation Summary
~~~~~~~~~~~~~~~~~~~~~~~~~~~~~~~~~
   -   To further speed up simulation, consider
          add ++aps on command line
   -   Non-default settings that could significantly slow down simulation
          errpreset = conservative, default moderate
          reltol = 10e-06, default 100e-06 (conservative)
~~~~~~~~~~~~~~~~~~~~~~~~~~~~~~~~~


During simulation, the CPU load for active processors is :
         0 (11.6 %)      1 (76.0 %)      2 (35.2 %)      3 (28.5 %)
         4 (55.5 %)      5 (80.1 %)      6 (7.5 %)       7 (100.0 %)
         8 (14.5 %)      9 (46.8 %)     10 (36.5 %)     11 (7.0 %)
        12 (23.7 %)     13 (42.3 %)     14 (52.2 %)     15 (39.1 %)
        16 (31.8 %)     17 (49.8 %)     18 (58.9 %)     19 (37.6 %)
        20 (55.2 %)     21 (24.0 %)     22 (49.3 %)     23 (38.5 %)
        24 (41.5 %)     25 (82.4 %)     26 (20.9 %)     27 (36.9 %)
        28 (51.9 %)     29 (58.1 %)     30 (35.2 %)     31 (42.2 %)
        32 (61.6 %)     33 (89.7 %)     34 (6.2 %)      35 (32.1 %)
        36 (100.0 %)    37 (29.5 %)     38 (22.6 %)     39 (35.0 %)
        40 (100.0 %)    41 (20.2 %)     42 (37.6 %)     43 (41.0 %)
        44 (53.9 %)     45 (8.6 %)      46 (45.7 %)     47 (31.5 %)
        Total: 2085.7%
Initial condition solution time: CPU = 2.383 ms, elapsed = 2.38609 ms.
Intrinsic tran analysis time:    CPU = 400.796 ms, elapsed = 402.172 ms.
Total time required for tran analysis `tran': CPU = 405.778 ms, elapsed = 407.827 ms, util. = 99.5%.
Time accumulated: CPU = 4.70517 s, elapsed = 5.71219 s.
Peak resident memory used = 213 Mbytes.


Notice from spectre during transient analysis `tran', during Monte Carlo analysis `mc1'.
    34 warnings suppressed.

finalTimeOP: writing operating point information to rawfile.

Opening the PSF file ../psf/mc1_separate/034/finalTimeOP.info ...
modelParameter: writing model parameter values to rawfile.

Opening the PSF file ../psf/mc1_separate/034/modelParameter.info ...
element: writing instance parameter values to rawfile.

Opening the PSF file ../psf/mc1_separate/034/element.info ...
outputParameter: writing output parameter values to rawfile.

Opening the PSF file ../psf/mc1_separate/034/outputParameter.info ...
designParamVals: writing netlist parameters to rawfile.

Opening the PSFASCII file ../psf/mc1_separate/034/designParamVals.info ...
primitives: writing primitives to rawfile.

Opening the PSFASCII file ../psf/mc1_separate/034/primitives.info.primitives ...
subckts: writing subcircuits to rawfile.

Opening the PSFASCII file ../psf/mc1_separate/034/subckts.info.subckts ...
    mc1: iteration = 34          (33.3 %), step = 1            (4.17 %)
35  37.50% 

*****************************************************************************************
* 
* INFO: AMS_processOption = C35B4C3
* 
* INFO: Valid Modules  PIP VG5 HIRES
* 
*****************************************************************************************


Notice from spectre during Monte Carlo analysis `mc1'.
    V8: `period' has the unusually large value of 100 s.


***********************************************
Transient Analysis `tran': time = (0 s -> 50 s)
***********************************************

Opening the PSF file ../psf/mc1_separate/035/tran.tran.tran ...

Warning from spectre during check, during IC analysis, during transient analysis `tran', during Monte Carlo analysis `mc1'.
    WARNING (CMI-2943): Parameter checks have been ignored because the valid value for parameter 'trise' could not be found in 'C1'.
    WARNING (CMI-2943): Parameter checks have been ignored because the valid value for parameter 'trise' could not be found in 'I0.R2.CM'.
    WARNING (CMI-2943): Parameter checks have been ignored because the valid value for parameter 'trise' could not be found in 'I0.R2.CS1'.
    WARNING (CMI-2943): Parameter checks have been ignored because the valid value for parameter 'trise' could not be found in 'I0.R2.CS0'.
    WARNING (CMI-2943): Parameter checks have been ignored because the valid value for parameter 'trise' could not be found in 'I0.C8<3>.C1'.
        Further occurrences of this warning will be suppressed.

Convergence achieved in 12 iterations.
DC simulation time: CPU = 2.59 ms, elapsed = 2.58994 ms.
Important parameter values:
    start = 0 s
    outputstart = 0 s
    stop = 50 s
    step = 50 ms
    maxstep = 500 ms
    ic = all
    useprevic = no
    skipdc = no
    reltol = 10e-06
    abstol(V) = 1 uV
    abstol(I) = 1 pA
    temp = 27 C
    tnom = 27 C
    tempeffects = all
    errpreset = conservative
    method = gear2only
    lteratio = 10
    relref = alllocal
    cmin = 0 F
    gmin = 1 pS
    rabsshort = 1 mOhm


Notice from spectre during transient analysis `tran', during Monte Carlo analysis `mc1'.
    Multithreading is disabled due to the size of the design being too small.


Output and IC/nodeset summary:
                 save   8       (current)
                 save   87      (voltage)

    tran: time = 1.256 s     (2.51 %), step = 100.4 ms     (201 m%)
    tran: time = 4.097 s     (8.19 %), step = 368 ms       (736 m%)
    tran: time = 6.416 s     (12.8 %), step = 500 ms          (1 %)
    tran: time = 8.916 s     (17.8 %), step = 500 ms          (1 %)
    tran: time = 11.42 s     (22.8 %), step = 500 ms          (1 %)
    tran: time = 13.92 s     (27.8 %), step = 500 ms          (1 %)
    tran: time = 16.42 s     (32.8 %), step = 500 ms          (1 %)
    tran: time = 18.92 s     (37.8 %), step = 500 ms          (1 %)
    tran: time = 21.42 s     (42.8 %), step = 500 ms          (1 %)
    tran: time = 23.92 s     (47.8 %), step = 500 ms          (1 %)
    tran: time = 26.42 s     (52.8 %), step = 500 ms          (1 %)
    tran: time = 28.92 s     (57.8 %), step = 500 ms          (1 %)
    tran: time = 31.42 s     (62.8 %), step = 500 ms          (1 %)
    tran: time = 33.92 s     (67.8 %), step = 500 ms          (1 %)
    tran: time = 36.42 s     (72.8 %), step = 500 ms          (1 %)
    tran: time = 38.92 s     (77.8 %), step = 500 ms          (1 %)
    tran: time = 41.42 s     (82.8 %), step = 500 ms          (1 %)
    tran: time = 43.92 s     (87.8 %), step = 500 ms          (1 %)
    tran: time = 46.42 s     (92.8 %), step = 500 ms          (1 %)
    tran: time = 48.92 s     (97.8 %), step = 500 ms          (1 %)
Number of accepted tran steps =             736

Maximum value achieved for any signal of each quantity: 
V: V(S<0>) = 3.3 V
I: I(V8:p) = 6.315 uA

~~~~~~~~~~~~~~~~~~~~~~~~~~~~~~~~~
Post-Transient Simulation Summary
~~~~~~~~~~~~~~~~~~~~~~~~~~~~~~~~~
   -   To further speed up simulation, consider
          add ++aps on command line
   -   Non-default settings that could significantly slow down simulation
          errpreset = conservative, default moderate
          reltol = 10e-06, default 100e-06 (conservative)
~~~~~~~~~~~~~~~~~~~~~~~~~~~~~~~~~


During simulation, the CPU load for active processors is :
         0 (13.5 %)      1 (77.9 %)      2 (38.2 %)      3 (33.9 %)
         4 (52.5 %)      5 (77.2 %)      6 (7.1 %)       7 (100.0 %)
         8 (14.6 %)      9 (45.7 %)     10 (40.7 %)     11 (10.9 %)
        12 (24.1 %)     13 (46.7 %)     14 (48.6 %)     15 (36.9 %)
        16 (35.7 %)     17 (48.8 %)     18 (57.3 %)     19 (38.8 %)
        20 (53.5 %)     21 (22.8 %)     22 (52.0 %)     23 (42.5 %)
        24 (45.9 %)     25 (83.2 %)     26 (19.7 %)     27 (34.4 %)
        28 (53.1 %)     29 (58.5 %)     30 (40.3 %)     31 (46.4 %)
        32 (58.8 %)     33 (90.5 %)     34 (5.9 %)      35 (30.1 %)
        36 (100.0 %)    37 (28.4 %)     38 (23.0 %)     39 (33.8 %)
        40 (100.0 %)    41 (20.2 %)     42 (42.0 %)     43 (39.4 %)
        44 (56.1 %)     45 (9.0 %)      46 (43.2 %)     47 (31.2 %)
        Total: 2113.2%
Initial condition solution time: CPU = 2.638 ms, elapsed = 2.64001 ms.
Intrinsic tran analysis time:    CPU = 397.221 ms, elapsed = 399.855 ms.
Total time required for tran analysis `tran': CPU = 402.554 ms, elapsed = 405.915 ms, util. = 99.2%.
Time accumulated: CPU = 5.15162 s, elapsed = 6.17239 s.
Peak resident memory used = 213 Mbytes.


Notice from spectre during transient analysis `tran', during Monte Carlo analysis `mc1'.
    34 warnings suppressed.

finalTimeOP: writing operating point information to rawfile.

Opening the PSF file ../psf/mc1_separate/035/finalTimeOP.info ...
modelParameter: writing model parameter values to rawfile.

Opening the PSF file ../psf/mc1_separate/035/modelParameter.info ...
element: writing instance parameter values to rawfile.

Opening the PSF file ../psf/mc1_separate/035/element.info ...
outputParameter: writing output parameter values to rawfile.

Opening the PSF file ../psf/mc1_separate/035/outputParameter.info ...
designParamVals: writing netlist parameters to rawfile.

Opening the PSFASCII file ../psf/mc1_separate/035/designParamVals.info ...
primitives: writing primitives to rawfile.

Opening the PSFASCII file ../psf/mc1_separate/035/primitives.info.primitives ...
subckts: writing subcircuits to rawfile.

Opening the PSFASCII file ../psf/mc1_separate/035/subckts.info.subckts ...
    mc1: iteration = 35          (37.5 %), step = 1            (4.17 %)
36  41.67% 

*****************************************************************************************
* 
* INFO: AMS_processOption = C35B4C3
* 
* INFO: Valid Modules  PIP VG5 HIRES
* 
*****************************************************************************************


Notice from spectre during Monte Carlo analysis `mc1'.
    V8: `period' has the unusually large value of 100 s.


[...]


***********************************************
Transient Analysis `tran': time = (0 s -> 50 s)
***********************************************

Opening the PSF file ../psf/mc1_separate/048/tran.tran.tran ...

Warning from spectre during check, during IC analysis, during transient analysis `tran', during Monte Carlo analysis `mc1'.
    WARNING (CMI-2943): Parameter checks have been ignored because the valid value for parameter 'trise' could not be found in 'C1'.
    WARNING (CMI-2943): Parameter checks have been ignored because the valid value for parameter 'trise' could not be found in 'I0.R2.CM'.
    WARNING (CMI-2943): Parameter checks have been ignored because the valid value for parameter 'trise' could not be found in 'I0.R2.CS1'.
    WARNING (CMI-2943): Parameter checks have been ignored because the valid value for parameter 'trise' could not be found in 'I0.R2.CS0'.
    WARNING (CMI-2943): Parameter checks have been ignored because the valid value for parameter 'trise' could not be found in 'I0.C8<3>.C1'.
        Further occurrences of this warning will be suppressed.

Convergence achieved in 12 iterations.
DC simulation time: CPU = 2.323 ms, elapsed = 2.33698 ms.
Important parameter values:
    start = 0 s
    outputstart = 0 s
    stop = 50 s
    step = 50 ms
    maxstep = 500 ms
    ic = all
    useprevic = no
    skipdc = no
    reltol = 10e-06
    abstol(V) = 1 uV
    abstol(I) = 1 pA
    temp = 27 C
    tnom = 27 C
    tempeffects = all
    errpreset = conservative
    method = gear2only
    lteratio = 10
    relref = alllocal
    cmin = 0 F
    gmin = 1 pS
    rabsshort = 1 mOhm


Notice from spectre during transient analysis `tran', during Monte Carlo analysis `mc1'.
    Multithreading is disabled due to the size of the design being too small.


Output and IC/nodeset summary:
                 save   8       (current)
                 save   87      (voltage)

    tran: time = 1.319 s     (2.64 %), step = 106.2 ms     (212 m%)
    tran: time = 3.769 s     (7.54 %), step = 162.2 ms     (324 m%)
    tran: time = 6.302 s     (12.6 %), step = 397.9 ms     (796 m%)
    tran: time = 9.176 s     (18.4 %), step = 500 ms          (1 %)
    tran: time = 11.68 s     (23.4 %), step = 500 ms          (1 %)
    tran: time = 14.18 s     (28.4 %), step = 500 ms          (1 %)
    tran: time = 16.68 s     (33.4 %), step = 500 ms          (1 %)
    tran: time = 19.18 s     (38.4 %), step = 500 ms          (1 %)
    tran: time = 21.68 s     (43.4 %), step = 500 ms          (1 %)
    tran: time = 24.18 s     (48.4 %), step = 500 ms          (1 %)
    tran: time = 26.68 s     (53.4 %), step = 500 ms          (1 %)
    tran: time = 29.18 s     (58.4 %), step = 500 ms          (1 %)
    tran: time = 31.68 s     (63.4 %), step = 500 ms          (1 %)
    tran: time = 34.18 s     (68.4 %), step = 500 ms          (1 %)
    tran: time = 36.68 s     (73.4 %), step = 500 ms          (1 %)
    tran: time = 39.18 s     (78.4 %), step = 500 ms          (1 %)
    tran: time = 41.68 s     (83.4 %), step = 500 ms          (1 %)
    tran: time = 44.18 s     (88.4 %), step = 500 ms          (1 %)
    tran: time = 46.68 s     (93.4 %), step = 500 ms          (1 %)
    tran: time = 49.18 s     (98.4 %), step = 500 ms          (1 %)
Number of accepted tran steps =             728

Maximum value achieved for any signal of each quantity: 
V: V(vout_filt) = 3.3 V
I: I(V8:p) = 6.397 uA

~~~~~~~~~~~~~~~~~~~~~~~~~~~~~~~~~
Post-Transient Simulation Summary
~~~~~~~~~~~~~~~~~~~~~~~~~~~~~~~~~
   -   To further speed up simulation, consider
          add ++aps on command line
   -   Non-default settings that could significantly slow down simulation
          errpreset = conservative, default moderate
          reltol = 10e-06, default 100e-06 (conservative)
~~~~~~~~~~~~~~~~~~~~~~~~~~~~~~~~~


During simulation, the CPU load for active processors is :
         0 (16.6 %)      1 (88.5 %)      2 (38.1 %)      3 (34.0 %)
         4 (31.8 %)      5 (51.5 %)      6 (19.0 %)      7 (99.9 %)
         8 (29.9 %)      9 (43.5 %)     10 (48.6 %)     11 (12.7 %)
        12 (30.5 %)     13 (44.4 %)     14 (40.2 %)     15 (28.8 %)
        16 (50.7 %)     17 (43.2 %)     18 (60.1 %)     19 (45.7 %)
        20 (45.4 %)     21 (38.5 %)     22 (57.7 %)     23 (44.6 %)
        24 (35.8 %)     25 (69.3 %)     26 (33.7 %)     27 (38.8 %)
        28 (35.8 %)     29 (44.2 %)     30 (35.2 %)     31 (54.9 %)
        32 (37.4 %)     33 (95.1 %)     34 (34.7 %)     35 (60.0 %)
        36 (81.4 %)     37 (48.9 %)     38 (30.8 %)     39 (28.2 %)
        40 (99.9 %)     41 (20.5 %)     42 (39.0 %)     43 (41.0 %)
        44 (47.7 %)     45 (25.9 %)     46 (39.3 %)     47 (30.0 %)
        Total: 2151.2%
Initial condition solution time: CPU = 2.36 ms, elapsed = 2.37417 ms.
Intrinsic tran analysis time:    CPU = 396.602 ms, elapsed = 398.064 ms.
Total time required for tran analysis `tran': CPU = 401.24 ms, elapsed = 403.381 ms, util. = 99.5%.
Time accumulated: CPU = 10.8781 s, elapsed = 12.066 s.
Peak resident memory used = 213 Mbytes.


Notice from spectre during transient analysis `tran', during Monte Carlo analysis `mc1'.
    34 warnings suppressed.

finalTimeOP: writing operating point information to rawfile.

Opening the PSF file ../psf/mc1_separate/048/finalTimeOP.info ...
modelParameter: writing model parameter values to rawfile.

Opening the PSF file ../psf/mc1_separate/048/modelParameter.info ...
element: writing instance parameter values to rawfile.

Opening the PSF file ../psf/mc1_separate/048/element.info ...
outputParameter: writing output parameter values to rawfile.

Opening the PSF file ../psf/mc1_separate/048/outputParameter.info ...
designParamVals: writing netlist parameters to rawfile.

Opening the PSFASCII file ../psf/mc1_separate/048/designParamVals.info ...
primitives: writing primitives to rawfile.

Opening the PSFASCII file ../psf/mc1_separate/048/primitives.info.primitives ...
subckts: writing subcircuits to rawfile.

Opening the PSFASCII file ../psf/mc1_separate/048/subckts.info.subckts ...
    mc1: iteration = 48          (91.7 %), step = 1            (4.17 %)
49  95.83% 

*****************************************************************************************
* 
* INFO: AMS_processOption = C35B4C3
* 
* INFO: Valid Modules  PIP VG5 HIRES
* 
*****************************************************************************************


Notice from spectre during Monte Carlo analysis `mc1'.
    V8: `period' has the unusually large value of 100 s.


***********************************************
Transient Analysis `tran': time = (0 s -> 50 s)
***********************************************

Opening the PSF file ../psf/mc1_separate/049/tran.tran.tran ...

Warning from spectre during check, during IC analysis, during transient analysis `tran', during Monte Carlo analysis `mc1'.
    WARNING (CMI-2943): Parameter checks have been ignored because the valid value for parameter 'trise' could not be found in 'C1'.
    WARNING (CMI-2943): Parameter checks have been ignored because the valid value for parameter 'trise' could not be found in 'I0.R2.CM'.
    WARNING (CMI-2943): Parameter checks have been ignored because the valid value for parameter 'trise' could not be found in 'I0.R2.CS1'.
    WARNING (CMI-2943): Parameter checks have been ignored because the valid value for parameter 'trise' could not be found in 'I0.R2.CS0'.
    WARNING (CMI-2943): Parameter checks have been ignored because the valid value for parameter 'trise' could not be found in 'I0.C8<3>.C1'.
        Further occurrences of this warning will be suppressed.

Convergence achieved in 12 iterations.
DC simulation time: CPU = 2.231 ms, elapsed = 2.23088 ms.
Important parameter values:
    start = 0 s
    outputstart = 0 s
    stop = 50 s
    step = 50 ms
    maxstep = 500 ms
    ic = all
    useprevic = no
    skipdc = no
    reltol = 10e-06
    abstol(V) = 1 uV
    abstol(I) = 1 pA
    temp = 27 C
    tnom = 27 C
    tempeffects = all
    errpreset = conservative
    method = gear2only
    lteratio = 10
    relref = alllocal
    cmin = 0 F
    gmin = 1 pS
    rabsshort = 1 mOhm


Notice from spectre during transient analysis `tran', during Monte Carlo analysis `mc1'.
    Multithreading is disabled due to the size of the design being too small.


Output and IC/nodeset summary:
                 save   8       (current)
                 save   87      (voltage)

    tran: time = 1.337 s     (2.67 %), step = 126.2 ms     (252 m%)
    tran: time = 3.984 s     (7.97 %), step = 371.5 ms     (743 m%)
    tran: time = 6.316 s     (12.6 %), step = 500 ms          (1 %)
    tran: time = 8.816 s     (17.6 %), step = 500 ms          (1 %)
    tran: time = 11.32 s     (22.6 %), step = 500 ms          (1 %)
    tran: time = 13.82 s     (27.6 %), step = 500 ms          (1 %)
    tran: time = 16.32 s     (32.6 %), step = 500 ms          (1 %)
    tran: time = 18.82 s     (37.6 %), step = 500 ms          (1 %)
    tran: time = 21.32 s     (42.6 %), step = 500 ms          (1 %)
    tran: time = 23.82 s     (47.6 %), step = 500 ms          (1 %)
    tran: time = 26.32 s     (52.6 %), step = 500 ms          (1 %)
    tran: time = 28.82 s     (57.6 %), step = 500 ms          (1 %)
    tran: time = 31.32 s     (62.6 %), step = 500 ms          (1 %)
    tran: time = 33.82 s     (67.6 %), step = 500 ms          (1 %)
    tran: time = 36.32 s     (72.6 %), step = 500 ms          (1 %)
    tran: time = 38.82 s     (77.6 %), step = 500 ms          (1 %)
    tran: time = 41.32 s     (82.6 %), step = 500 ms          (1 %)
    tran: time = 43.82 s     (87.6 %), step = 500 ms          (1 %)
    tran: time = 46.32 s     (92.6 %), step = 500 ms          (1 %)
    tran: time = 48.82 s     (97.6 %), step = 500 ms          (1 %)
Number of accepted tran steps =             742

Maximum value achieved for any signal of each quantity: 
V: V(vout) = 3.3 V
I: I(V8:p) = 6.49 uA

~~~~~~~~~~~~~~~~~~~~~~~~~~~~~~~~~
Post-Transient Simulation Summary
~~~~~~~~~~~~~~~~~~~~~~~~~~~~~~~~~
   -   To further speed up simulation, consider
          add ++aps on command line
   -   Non-default settings that could significantly slow down simulation
          errpreset = conservative, default moderate
          reltol = 10e-06, default 100e-06 (conservative)
~~~~~~~~~~~~~~~~~~~~~~~~~~~~~~~~~


During simulation, the CPU load for active processors is :
         0 (16.4 %)      1 (88.6 %)      2 (37.1 %)      3 (36.5 %)
         4 (30.8 %)      5 (49.9 %)      6 (19.1 %)      7 (99.9 %)
         8 (29.0 %)      9 (42.1 %)     10 (50.4 %)     11 (16.0 %)
        12 (30.2 %)     13 (42.9 %)     14 (38.9 %)     15 (28.0 %)
        16 (49.1 %)     17 (44.7 %)     18 (61.5 %)     19 (44.4 %)
        20 (44.3 %)     21 (40.5 %)     22 (59.3 %)     23 (46.6 %)
        24 (38.1 %)     25 (66.9 %)     26 (36.0 %)     27 (37.5 %)
        28 (37.4 %)     29 (46.2 %)     30 (34.3 %)     31 (52.9 %)
        32 (36.0 %)     33 (92.4 %)     34 (33.5 %)     35 (61.5 %)
        36 (82.1 %)     37 (50.8 %)     38 (31.2 %)     39 (27.6 %)
        40 (99.9 %)     41 (20.5 %)     42 (37.7 %)     43 (41.5 %)
        44 (46.1 %)     45 (28.6 %)     46 (38.3 %)     47 (29.1 %)
        Total: 2152.1%
Initial condition solution time: CPU = 2.278 ms, elapsed = 2.27904 ms.
Intrinsic tran analysis time:    CPU = 395.977 ms, elapsed = 397.595 ms.
Total time required for tran analysis `tran': CPU = 400.609 ms, elapsed = 402.847 ms, util. = 99.4%.
Time accumulated: CPU = 11.3199 s, elapsed = 12.5261 s.
Peak resident memory used = 213 Mbytes.


Notice from spectre during transient analysis `tran', during Monte Carlo analysis `mc1'.
    34 warnings suppressed.

finalTimeOP: writing operating point information to rawfile.

Opening the PSF file ../psf/mc1_separate/049/finalTimeOP.info ...
modelParameter: writing model parameter values to rawfile.

Opening the PSF file ../psf/mc1_separate/049/modelParameter.info ...
element: writing instance parameter values to rawfile.

Opening the PSF file ../psf/mc1_separate/049/element.info ...
outputParameter: writing output parameter values to rawfile.

Opening the PSF file ../psf/mc1_separate/049/outputParameter.info ...
designParamVals: writing netlist parameters to rawfile.

Opening the PSFASCII file ../psf/mc1_separate/049/designParamVals.info ...
primitives: writing primitives to rawfile.

Opening the PSFASCII file ../psf/mc1_separate/049/primitives.info.primitives ...
subckts: writing subcircuits to rawfile.

Opening the PSFASCII file ../psf/mc1_separate/049/subckts.info.subckts ...
    mc1: iteration = 49          (95.8 %), step = 1            (4.17 %)
50 100.00% 

*****************************************************************************************
* 
* INFO: AMS_processOption = C35B4C3
* 
* INFO: Valid Modules  PIP VG5 HIRES
* 
*****************************************************************************************


Notice from spectre during Monte Carlo analysis `mc1'.
    V8: `period' has the unusually large value of 100 s.


***********************************************
Transient Analysis `tran': time = (0 s -> 50 s)
***********************************************

Opening the PSF file ../psf/mc1_separate/050/tran.tran.tran ...

Warning from spectre during check, during IC analysis, during transient analysis `tran', during Monte Carlo analysis `mc1'.
    WARNING (CMI-2943): Parameter checks have been ignored because the valid value for parameter 'trise' could not be found in 'C1'.
    WARNING (CMI-2943): Parameter checks have been ignored because the valid value for parameter 'trise' could not be found in 'I0.R2.CM'.
    WARNING (CMI-2943): Parameter checks have been ignored because the valid value for parameter 'trise' could not be found in 'I0.R2.CS1'.
    WARNING (CMI-2943): Parameter checks have been ignored because the valid value for parameter 'trise' could not be found in 'I0.R2.CS0'.
    WARNING (CMI-2943): Parameter checks have been ignored because the valid value for parameter 'trise' could not be found in 'I0.C8<3>.C1'.
        Further occurrences of this warning will be suppressed.

Convergence achieved in 12 iterations.
DC simulation time: CPU = 2.175 ms, elapsed = 2.17605 ms.
Important parameter values:
    start = 0 s
    outputstart = 0 s
    stop = 50 s
    step = 50 ms
    maxstep = 500 ms
    ic = all
    useprevic = no
    skipdc = no
    reltol = 10e-06
    abstol(V) = 1 uV
    abstol(I) = 1 pA
    temp = 27 C
    tnom = 27 C
    tempeffects = all
    errpreset = conservative
    method = gear2only
    lteratio = 10
    relref = alllocal
    cmin = 0 F
    gmin = 1 pS
    rabsshort = 1 mOhm


Notice from spectre during transient analysis `tran', during Monte Carlo analysis `mc1'.
    Multithreading is disabled due to the size of the design being too small.


Output and IC/nodeset summary:
                 save   8       (current)
                 save   87      (voltage)

    tran: time = 1.359 s     (2.72 %), step = 112.9 ms     (226 m%)
    tran: time = 3.768 s     (7.54 %), step = 342.2 ms     (684 m%)
    tran: time = 6.48 s        (13 %), step = 500 ms          (1 %)
    tran: time = 8.98 s        (18 %), step = 500 ms          (1 %)
    tran: time = 11.48 s       (23 %), step = 500 ms          (1 %)
    tran: time = 13.98 s       (28 %), step = 500 ms          (1 %)
    tran: time = 16.48 s       (33 %), step = 500 ms          (1 %)
    tran: time = 18.98 s       (38 %), step = 500 ms          (1 %)
    tran: time = 21.48 s       (43 %), step = 500 ms          (1 %)
    tran: time = 23.98 s       (48 %), step = 500 ms          (1 %)
    tran: time = 26.48 s       (53 %), step = 500 ms          (1 %)
    tran: time = 28.98 s       (58 %), step = 500 ms          (1 %)
    tran: time = 31.48 s       (63 %), step = 500 ms          (1 %)
    tran: time = 33.98 s       (68 %), step = 500 ms          (1 %)
    tran: time = 36.48 s       (73 %), step = 500 ms          (1 %)
    tran: time = 38.98 s       (78 %), step = 500 ms          (1 %)
    tran: time = 41.48 s       (83 %), step = 500 ms          (1 %)
    tran: time = 43.98 s       (88 %), step = 500 ms          (1 %)
    tran: time = 46.48 s       (93 %), step = 500 ms          (1 %)
    tran: time = 48.98 s       (98 %), step = 500 ms          (1 %)
Number of accepted tran steps =             731

Maximum value achieved for any signal of each quantity: 
V: V(vout_filt) = 3.3 V
I: I(V8:p) = 6.448 uA

~~~~~~~~~~~~~~~~~~~~~~~~~~~~~~~~~
Post-Transient Simulation Summary
~~~~~~~~~~~~~~~~~~~~~~~~~~~~~~~~~
   -   To further speed up simulation, consider
          add ++aps on command line
   -   Non-default settings that could significantly slow down simulation
          errpreset = conservative, default moderate
          reltol = 10e-06, default 100e-06 (conservative)
~~~~~~~~~~~~~~~~~~~~~~~~~~~~~~~~~


During simulation, the CPU load for active processors is :
         0 (16.0 %)      1 (87.9 %)      2 (36.0 %)      3 (37.1 %)
         4 (30.1 %)      5 (49.0 %)      6 (20.6 %)      7 (99.9 %)
         8 (28.3 %)      9 (40.8 %)     10 (52.1 %)     11 (18.3 %)
        12 (29.9 %)     13 (41.5 %)     14 (37.6 %)     15 (30.3 %)
        16 (47.8 %)     17 (43.3 %)     18 (59.7 %)     19 (43.4 %)
        20 (45.8 %)     21 (42.5 %)     22 (60.1 %)     23 (48.4 %)
        24 (38.6 %)     25 (64.9 %)     26 (35.0 %)     27 (37.3 %)
        28 (39.4 %)     29 (47.9 %)     30 (33.8 %)     31 (51.2 %)
        32 (36.1 %)     33 (89.4 %)     34 (32.8 %)     35 (62.8 %)
        36 (80.1 %)     37 (52.6 %)     38 (31.6 %)     39 (29.4 %)
        40 (97.2 %)     41 (20.0 %)     42 (37.0 %)     43 (42.2 %)
        44 (44.6 %)     45 (28.6 %)     46 (38.4 %)     47 (28.9 %)
        Total: 2146.6%
Initial condition solution time: CPU = 2.239 ms, elapsed = 2.23994 ms.
Intrinsic tran analysis time:    CPU = 386.864 ms, elapsed = 388.551 ms.
Total time required for tran analysis `tran': CPU = 391.603 ms, elapsed = 393.941 ms, util. = 99.4%.
Time accumulated: CPU = 11.7544 s, elapsed = 12.9742 s.
Peak resident memory used = 213 Mbytes.


Notice from spectre during transient analysis `tran', during Monte Carlo analysis `mc1'.
    34 warnings suppressed.

finalTimeOP: writing operating point information to rawfile.

Opening the PSF file ../psf/mc1_separate/050/finalTimeOP.info ...
modelParameter: writing model parameter values to rawfile.

Opening the PSF file ../psf/mc1_separate/050/modelParameter.info ...
element: writing instance parameter values to rawfile.

Opening the PSF file ../psf/mc1_separate/050/element.info ...
outputParameter: writing output parameter values to rawfile.

Opening the PSF file ../psf/mc1_separate/050/outputParameter.info ...
designParamVals: writing netlist parameters to rawfile.

Opening the PSFASCII file ../psf/mc1_separate/050/designParamVals.info ...
primitives: writing primitives to rawfile.

Opening the PSFASCII file ../psf/mc1_separate/050/primitives.info.primitives ...
subckts: writing subcircuits to rawfile.

Opening the PSFASCII file ../psf/mc1_separate/050/subckts.info.subckts ...
    mc1: iteration = 50           (100 %), step = 1            (4.17 %)
Total time required for montecarlo analysis `mc1': CPU = 11.1848 s, elapsed = 11.5263 s, util. = 97%.
Time accumulated: CPU = 11.7816 s, elapsed = 13.0142 s.
Peak resident memory used = 213 Mbytes.

Licensing Information:
Lic Summary:
[09:36:48.185816] Cdslmd servers:3000@lic08.ug.kth.se:29000@lic06.ug.kth.se
[09:36:48.710147] Feature usage summary:
[09:36:48.710147] Virtuoso_Multi_mode_Simulation


Aggregate audit (9:36:48 AM, Thur Apr 16, 2026):
Time used: CPU = 11.8 s, elapsed = 13 s, util. = 90.5%.
Time spent in licensing: elapsed = 26.6 ms.
Peak memory used = 213 Mbytes.
Simulation started at: 9:36:35 AM, Thur Apr 16, 2026, ended at: 9:36:48 AM, Thur Apr 16, 2026, with elapsed time (wall clock): 13 s.
spectre completes with 0 errors, 142 warnings, and 83 notices.
