
Spectre (R) Circuit Simulator
Version 24.1.0.288.isr5 64bit -- 3 Apr 2025
Copyright (C) 1989-2025 Cadence Design Systems, Inc. All rights reserved worldwide. Cadence and Spectre are registered trademarks of Cadence Design Systems, Inc. All others are the property of their respective holders.

Includes RSA BSAFE(R) Cryptographic or Security Protocol Software from RSA Security, Inc.

User: davidevi   Host: il2244vt26_davidevi   HostID: 11AC2C00   PID: 527280
Memory  available: 3.0703 TB  physical: 3.2467 TB
Linux   : Rocky Linux release 8.10 (Green Obsidian)
CPU Type: Intel(R) Xeon(R) CPU E7-8857 v2 @ 3.00GHz
        Socket: Processors [Frequency]
        0:       0 [1200.0],  1 [2999.9],  2 [1200.0],  3 [2999.9],  4 [1500.0]
                 5 [2999.9],  6 [1300.0],  7 [2999.9],  8 [1500.0],  9 [2999.9]
                10 [1300.0], 11 [3600.0]
        1:      12 [3600.0], 13 [3600.0], 14 [3600.0], 15 [3399.9], 16 [2700.0]
                17 [3600.0], 18 [3600.0], 19 [3600.0], 20 [3399.9], 21 [3600.0]
                22 [3600.0], 23 [3399.9]
        2:      24 [2999.9], 25 [2100.0], 26 [3600.0], 27 [1300.0], 28 [2800.0]
                29 [2999.9], 30 [3600.0], 31 [3200.0], 32 [1900.0], 33 [2100.0]
                34 [3000.0], 35 [3600.0]
        3:      36 [2999.9], 37 [2999.9], 38 [3600.0], 39 [2999.9], 40 [2999.9]
                41 [3600.0], 42 [2999.9], 43 [3600.0], 44 [3600.0], 45 [3600.0]
                46 [3600.0], 47 [3600.0]
        
System load averages (1min, 5min, 15min) : 24.1 %, 20.0 %, 18.4 %
HPC is enabled


Simulating `input.scs' on il2244vt26_davidevi at 1:15:33 PM, Thur Mar 19, 2026 (process id: 527280).
Current working directory: /home/davidevi/Desktop/myproject/Sim/VGA/VGA_1_tb/adexl/results/data/Interactive.33/1/VGA:VGA_1_tb:1/netlist
Command line:
    /opt/tools/cadence/installs/SPECTRE241/tools/bin/spectre -64  \
        input.scs +escchars +log ../psf/spectre.out -format psfbin  \
        +rtsf -raw ../psf +aps +mt +lqtimeout 900 -maxw 5 -maxn 5  \
        +param /opt/pdk/ams/410/spectre/ams_range.lmts -env ade  \
        -ahdllibdir  \
        /home/davidevi/Desktop/myproject/Sim/VGA/VGA_1_tb/adexl/results/data/Interactive.33/sharedData/Job78/ahdl/input.ahdlSimDB  \
        +logstatus  \
        +adespetkn=0001089D13A302B663E41FB550AF0DF415A679A322D5069144BF588C12F604E07EF416DC01A319B562BB63D35BCB1D8245A30497268D25E706AA13C46EC84F9266FA79D15D9175FF34986BDD0AF002BA50FD7FD707E002A700AC1C8D1CF642EB0EA079D12DF874D3349879D118F874D33498106AEE0B82205D2300003679

Simulation Id: iQoAOt22Q4Mq8wRb
Licensing Information:
[13:15:33.121730] Configured Lic search path (24.01-s002): 3000@lic08.ug.kth.se:29000@lic06.ug.kth.se

Licensing Information:
[13:15:33.406368] Periodic Lic check successful

Loading /opt/tools/cadence/installs/SPECTRE241/tools.lnx86/cmi/lib/64bit/5.0/libinfineon_sh.so ...
Loading /opt/tools/cadence/installs/SPECTRE241/tools.lnx86/cmi/lib/64bit/5.0/libphilips_I_sh.so ...
Loading /opt/tools/cadence/installs/SPECTRE241/tools.lnx86/cmi/lib/64bit/5.0/libphilips_sh.so ...
Loading /opt/tools/cadence/installs/SPECTRE241/tools.lnx86/cmi/lib/64bit/5.0/libsparam_sh.so ...
Loading /opt/tools/cadence/installs/SPECTRE241/tools.lnx86/cmi/lib/64bit/5.0/libstmodels_sh.so ...

Warning from spectre.
    WARNING (SPECTRE-691): This CPU processor does not support x86 advanced vector extensions instructions. This may affect math operations and slow down the simulation.

Reading file:  /home/davidevi/Desktop/myproject/Sim/VGA/VGA_1_tb/adexl/results/data/Interactive.33/1/VGA:VGA_1_tb:1/netlist/input.scs
Reading file:  /opt/pdk/ams/410/spectre/ams_range.lmts

Warning from spectre during read of parameter soft limits file `/opt/pdk/ams/410/spectre/ams_range.lmts', during circuit read-in.
    WARNING (SPECTRE-8360): line 1511: `ac' is an undefined primitive device.
    WARNING (SPECTRE-8360): line 1512: `ac' is an undefined primitive device.
    WARNING (SPECTRE-8360): line 1513: `ac' is an undefined primitive device.
    WARNING (SPECTRE-8360): line 1514: `ac' is an undefined primitive device.
    WARNING (SPECTRE-8360): line 1515: `ac' is an undefined primitive device.
        Further occurrences of this warning will be suppressed.

Reading file:  /opt/tools/cadence/installs/SPECTRE241/tools.lnx86/spectre/etc/configs/spectre.cfg
Reading file:  /opt/pdk/ams/410/spectre/c35/soac/soac.scs
Reading file:  /opt/pdk/ams/410/spectre/c35/soac/processOption.scs
Reading file:  /opt/pdk/ams/410/spectre/c35/soac/process.scs
Reading file:  /opt/pdk/ams/410/spectre/c35/soac/soac.va

Warning from spectre during AHDL read-in.
    WARNING (VACOMP-2435): The environment variable CDS_AHDLCMI_ENABLE is no longer supported. Therefore, the simulator will use the default compiled C code flow.

Reading link:  /opt/tools/cadence/installs/SPECTRE241/tools.lnx86/spectre/etc/ahdl/constants.h
Reading file:  /opt/tools/cadence/installs/SPECTRE241/tools.lnx86/spectre/etc/ahdl/constants.vams
Reading link:  /opt/tools/cadence/installs/SPECTRE241/tools.lnx86/spectre/etc/ahdl/discipline.h
Reading file:  /opt/tools/cadence/installs/SPECTRE241/tools.lnx86/spectre/etc/ahdl/disciplines.vams
Reading file:  /opt/pdk/ams/410/spectre/c35/processOption/C35B4C3.scs
Reading file:  /opt/pdk/ams/410/spectre/c35/soac/cmos53.scs
Reading file:  /opt/pdk/ams/410/spectre/c35/soac/res.scs
Reading file:  /opt/pdk/ams/410/spectre/c35/soac/cap.scs
Reading file:  /opt/pdk/ams/410/spectre/c35/soac/bip.scs
Reading file:  /opt/pdk/ams/410/spectre/c35/soac/ind.scs
Reading file:  /opt/pdk/ams/410/spectre/c35/soac/esddiode.scs
Time for NDB Parsing: CPU = 162.445 ms, elapsed = 281.959 ms.
Time accumulated: CPU = 362.737 ms, elapsed = 281.962 ms.
Peak resident memory used = 175 Mbytes.

Existing shared object for module modn_ahdl is up to date.
Installed compiled interface for modn_ahdl.
Existing shared object for module modp_ahdl is up to date.
Installed compiled interface for modp_ahdl.
Existing shared object for module cpoly_ahdl is up to date.
Installed compiled interface for cpoly_ahdl.
Time for Elaboration: CPU = 39.24 ms, elapsed = 40.0898 ms.
Time accumulated: CPU = 402.224 ms, elapsed = 322.298 ms.
Peak resident memory used = 186 Mbytes.


Notice from spectre during hierarchy flattening.
    The value 'psf' specified for the 'checklimitdest' option will no longer be supported in future releases. Use 'spectre -h' to see other recommended values for the 'checklimitdest' option.


*****************************************************************************************
* 
* INFO: AMS_processOption = C35B4C3
* 
* INFO: Valid Modules  PIP VG5 HIRES
* 
*****************************************************************************************


Notice from spectre in `VGA_1':`I0', during hierarchy flattening.
    I0.R1 of VGA_1: `r' has the unusually large value of 500 GOhm.


Time for EDB Visiting: CPU = 7.003 ms, elapsed = 7.00402 ms.
Time accumulated: CPU = 409.469 ms, elapsed = 329.543 ms.
Peak resident memory used = 188 Mbytes.

Loading /opt/tools/cadence/installs/SPECTRE241/tools.lnx86/mdl/lib/64bit/libSpectreEH_sh.so ...

Warning from spectre during initial setup.
    WARNING (SPECTRE-16460): SOAC_cvarm_vspsub:Specified subcircuit master `cvarm' was not found.
    WARNING (SPECTRE-16462): SOAC_cvarm_vspsub:Error in specification of subcircuit master. Assert is ignored.
    WARNING (SPECTRE-16460): SOAC_cvarm_vbs:Specified subcircuit master `cvarm' was not found.
    WARNING (SPECTRE-16462): SOAC_cvarm_vbs:Error in specification of subcircuit master. Assert is ignored.
    WARNING (SPECTRE-16460): SOAC_cvarm_vgb:Specified subcircuit master `cvarm' was not found.
    WARNING (SPECTRE-16462): SOAC_cvarm_vgb:Error in specification of subcircuit master. Assert is ignored.
    WARNING (SPECTRE-16460): SOAC_cvart_vspsub:Specified subcircuit master `cvart' was not found.
    WARNING (SPECTRE-16462): SOAC_cvart_vspsub:Error in specification of subcircuit master. Assert is ignored.
    WARNING (SPECTRE-16460): SOAC_cvart_vbs:Specified subcircuit master `cvart' was not found.
        Further occurrences of this warning will be suppressed.
    WARNING (SPECTRE-16462): SOAC_cvart_vbs:Error in specification of subcircuit master. Assert is ignored.
        Further occurrences of this warning will be suppressed.
Notice from spectre during topology check.
    Only one connection to the following 36 nodes:
        I0.MN6.psub!
        I0.MN5.psub!
        I0.MN4.psub!
        I0.MN3.psub!
        I0.MN2.psub!
        Further occurrences of this notice will be suppressed.
Notice from spectre during initial setup.
    Multithreading is disabled due to the size of the design being too small.


Netlist title:
        // Point Netlist Generated on: Mar 19 13:15:31 2026


Global user options:
         psfversion = 1.4.0
            vabstol = 1e-06
            iabstol = 1e-12
               temp = 27
           homotopy = 5
              limit = delta
         compatible = spice2
               gmin = 1e-12
             rforce = 1
           maxnotes = 5
           maxwarns = 5
             digits = 5
               cols = 80
             pivrel = 0.001
           sensfile = ../psf/sens.output
     checklimitdest = psf
     enable_pre_ver = yes
      ignorezerovar = yes
               save = allpub
             reltol = 0.0001
               tnom = 27
             scalem = 1
              scale = 1

Scoped user options:

Circuit inventory:
              nodes 76
            bsim3v3 30    
          capacitor 36    
         cpoly_ahdl 17    
            isource 1     
          modn_ahdl 19    
          modp_ahdl 11    
           resistor 3     
            vsource 8     

Analysis and control statement inventory:
                 ac 1     
                 dc 1     
               info 8     
              noise 1     
                 pz 1     
               tran 1     

Output statements:
             .probe 0     
           .measure 0     
               save 0     

Design checks inventory:
          paramtest 48    
             assert 175   


Notice from spectre during initial setup.
    APS enabled.
    1 notice suppressed.
    72 warnings suppressed.

Time for parsing: CPU = 17.341 ms, elapsed = 604.693 ms.
Time accumulated: CPU = 426.931 ms, elapsed = 934.356 ms.
Peak resident memory used = 195 Mbytes.

~~~~~~~~~~~~~~~~~~~~~~
Pre-Simulation Summary
~~~~~~~~~~~~~~~~~~~~~~
   -   (APS) Multi-threading. The recommended number of threads is 1, consider adding +mt=1 on command line.
~~~~~~~~~~~~~~~~~~~~~~

******************
DC Analysis `dcOp'
******************

Notice from spectre during DC analysis `dcOp'.
    No checklimit analysis defined for asserts. A default checklimit analysis 'SpectreChecklimitAnal' has been created with all asserts enabled.


Opening the PSF file ../psf/dcOp.dc ...
Important parameter values:
    reltol = 100e-06
    abstol(V) = 1 uV
    abstol(I) = 1 pA
    temp = 27 C
    tnom = 27 C
    tempeffects = all
    gmindc = 1 pS
    rabsshort = 1 mOhm

Notice from spectre during DC analysis `dcOp'.
    Bad pivoting is found during DC analysis. Option dc_pivot_check=yes is recommended for possible improvement of convergence.


Maximum value achieved for any signal of each quantity: 
V: V(net2) = 3.3 V
I: I(V0:p) = 2.007 uA
Maximum value of each quantity, excluding Verilog-A modules or dangling current sources:
V: V(vout) = 1.6 V
I: I(V0:p) = 2.007 uA

Warning from spectre during check, during DC analysis `dcOp'.
    WARNING (CMI-2943): Parameter checks have been ignored because the valid value for parameter 'trise' could not be found in 'C0'.
    WARNING (CMI-2943): Parameter checks have been ignored because the valid value for parameter 'trise' could not be found in 'C1'.
    WARNING (CMI-2943): Parameter checks have been ignored because the valid value for parameter 'trise' could not be found in 'I0.C3.C1'.
    WARNING (CMI-2943): Parameter checks have been ignored because the valid value for parameter 'trise' could not be found in 'I0.C7<0>_turbo_m2.C1'.
    WARNING (CMI-2943): Parameter checks have been ignored because the valid value for parameter 'trise' could not be found in 'I0.C8<0>_turbo_m4.C1'.
        Further occurrences of this warning will be suppressed.

Convergence achieved in 19 iterations.
DC simulation time: CPU = 85.59 ms, elapsed = 89.8421 ms.
Total time required for dc analysis `dcOp': CPU = 85.713 ms, elapsed = 89.9551 ms, util. = 95.3%.
Time accumulated: CPU = 534.916 ms, elapsed = 1.0471 s.
Peak resident memory used = 203 Mbytes.


Notice from spectre.
    12 warnings suppressed.

dcOpInfo: writing operating point information to rawfile.

Opening the PSF file ../psf/dcOpInfo.info ...

************************************************
Transient Analysis `tran': time = (0 s -> 40 ms)
************************************************

Notice from spectre during IC analysis, during transient analysis `tran'.
    Bad pivoting is found during DC analysis. Option dc_pivot_check=yes is recommended for possible improvement of convergence.
Warning from spectre during check, during IC analysis, during transient analysis `tran'.
    WARNING (CMI-2943): Parameter checks have been ignored because the valid value for parameter 'trise' could not be found in 'C0'.
    WARNING (CMI-2943): Parameter checks have been ignored because the valid value for parameter 'trise' could not be found in 'C1'.
    WARNING (CMI-2943): Parameter checks have been ignored because the valid value for parameter 'trise' could not be found in 'I0.C3.C1'.
    WARNING (CMI-2943): Parameter checks have been ignored because the valid value for parameter 'trise' could not be found in 'I0.C7<0>_turbo_m2.C1'.
    WARNING (CMI-2943): Parameter checks have been ignored because the valid value for parameter 'trise' could not be found in 'I0.C8<0>_turbo_m4.C1'.
        Further occurrences of this warning will be suppressed.

Convergence achieved in 2 iterations.
DC simulation time: CPU = 982 us, elapsed = 1.04117 ms.

Opening the PSF file ../psf/tran.tran.tran ...
Important parameter values:
    start = 0 s
    outputstart = 0 s
    stop = 40 ms
    step = 40 us
    maxstep = 400 us
    ic = all
    useprevic = no
    skipdc = no
    reltol = 10e-06
    abstol(V) = 1 uV
    abstol(I) = 1 pA
    temp = 27 C
    tnom = 27 C
    tempeffects = all
    errpreset = conservative
    method = gear2only
    lteratio = 10
    relref = alllocal
    cmin = 0 F
    gmin = 1 pS
    rabsshort = 1 mOhm


Notice from spectre during transient analysis `tran'.
    Multithreading is disabled due to the size of the design being too small.


Output and IC/nodeset summary:
                 save   8       (current)
                 save   75      (voltage)

    tran: time = 1.166 ms    (2.92 %), step = 196.9 us     (492 m%)
    tran: time = 3.123 ms    (7.81 %), step = 268 us       (670 m%)
    tran: time = 5.044 ms    (12.6 %), step = 382.7 us     (957 m%)
    tran: time = 7.006 ms    (17.5 %), step = 361.4 us     (904 m%)
    tran: time = 9.243 ms    (23.1 %), step = 256.4 us     (641 m%)
    tran: time = 11.24 ms    (28.1 %), step = 250.2 us     (625 m%)
    tran: time = 13.07 ms    (32.7 %), step = 275.2 us     (688 m%)
    tran: time = 15.4 ms     (38.5 %), step = 400 us          (1 %)
    tran: time = 17.29 ms    (43.2 %), step = 325.9 us     (815 m%)
    tran: time = 19.21 ms      (48 %), step = 256.9 us     (642 m%)
    tran: time = 21.21 ms      (53 %), step = 250 us       (625 m%)
    tran: time = 23.04 ms    (57.6 %), step = 274.4 us     (686 m%)
    tran: time = 25.35 ms    (63.4 %), step = 400 us          (1 %)
    tran: time = 27.25 ms    (68.1 %), step = 330.2 us     (826 m%)
    tran: time = 29.18 ms      (73 %), step = 257.3 us     (643 m%)
    tran: time = 31.18 ms      (78 %), step = 249.9 us     (625 m%)
    tran: time = 33.01 ms    (82.5 %), step = 273.6 us     (684 m%)
    tran: time = 35.3 ms     (88.3 %), step = 400 us          (1 %)
    tran: time = 37.21 ms      (93 %), step = 334.8 us     (837 m%)
    tran: time = 39.15 ms    (97.9 %), step = 257.7 us     (644 m%)
Number of accepted tran steps =             168

Maximum value achieved for any signal of each quantity: 
V: V(net2) = 3.3 V
I: I(V0:p) = 2.009 uA
Maximum value of each quantity, excluding Verilog-A modules or dangling current sources:
V: V(vout) = 2.874 V
I: I(V0:p) = 2.009 uA

~~~~~~~~~~~~~~~~~~~~~~~~~~~~~~~~~
Post-Transient Simulation Summary
~~~~~~~~~~~~~~~~~~~~~~~~~~~~~~~~~
   -   To further speed up simulation, consider
          add ++aps on command line
   -   Non-default settings that could significantly slow down simulation
          errpreset = conservative, default moderate
          reltol = 10e-06, default 100e-06 (conservative)
~~~~~~~~~~~~~~~~~~~~~~~~~~~~~~~~~


During simulation, the CPU load for active processors is :
         0 (21.3 %)      1 (98.2 %)      2 (20.6 %)      3 (61.6 %)
         4 (20.4 %)      5 (59.1 %)      6 (23.6 %)      7 (48.6 %)
         8 (23.1 %)      9 (100.0 %)    10 (22.9 %)     11 (62.7 %)
        12 (91.7 %)     13 (34.5 %)     14 (24.8 %)     15 (22.9 %)
        16 (33.0 %)     17 (27.5 %)     18 (39.8 %)     19 (27.8 %)
        20 (28.4 %)     21 (14.7 %)     22 (22.2 %)     23 (17.8 %)
        24 (32.7 %)     25 (65.2 %)     26 (48.2 %)     27 (14.3 %)
        28 (19.6 %)     29 (100.0 %)    30 (26.4 %)     31 (32.7 %)
        32 (23.9 %)     33 (22.5 %)     34 (25.0 %)     35 (17.6 %)
        36 (100.0 %)    37 (25.2 %)     38 (22.5 %)     39 (32.4 %)
        40 (33.0 %)     41 (19.0 %)     42 (49.5 %)     43 (27.5 %)
        44 (16.0 %)     45 (17.4 %)     46 (35.2 %)     47 (41.8 %)
        Total: 1795.2%
Initial condition solution time: CPU = 1.024 ms, elapsed = 1.08385 ms.
Intrinsic tran analysis time:    CPU = 81.747 ms, elapsed = 83.2441 ms.
Total time required for tran analysis `tran': CPU = 84.885 ms, elapsed = 86.9908 ms, util. = 97.6%.
Time accumulated: CPU = 628.239 ms, elapsed = 1.14496 s.
Peak resident memory used = 207 Mbytes.


Notice from spectre.
    12 warnings suppressed.

finalTimeOP: writing operating point information to rawfile.

Opening the PSF file ../psf/finalTimeOP.info ...

*******************************************
AC Analysis `ac': freq = (10 mHz -> 10 GHz)
*******************************************

Notice from spectre during DC analysis, during AC analysis `ac'.
    Bad pivoting is found during DC analysis. Option dc_pivot_check=yes is recommended for possible improvement of convergence.
Warning from spectre during check, during DC analysis, during AC analysis `ac'.
    WARNING (CMI-2943): Parameter checks have been ignored because the valid value for parameter 'trise' could not be found in 'C0'.
    WARNING (CMI-2943): Parameter checks have been ignored because the valid value for parameter 'trise' could not be found in 'C1'.
    WARNING (CMI-2943): Parameter checks have been ignored because the valid value for parameter 'trise' could not be found in 'I0.C3.C1'.
    WARNING (CMI-2943): Parameter checks have been ignored because the valid value for parameter 'trise' could not be found in 'I0.C7<0>_turbo_m2.C1'.
    WARNING (CMI-2943): Parameter checks have been ignored because the valid value for parameter 'trise' could not be found in 'I0.C8<0>_turbo_m4.C1'.
        Further occurrences of this warning will be suppressed.

Convergence achieved in 22 iterations.
DC simulation time: CPU = 3.012 ms, elapsed = 3.01218 ms.

Opening the PSF file ../psf/ac.ac ...
    ac: freq = 19.95 mHz    (2.5 %), step = 1.474 mHz    (278 m%)
    ac: freq = 21.54 mHz   (2.78 %), step = 1.592 mHz    (278 m%)
    ac: freq = 23.26 mHz   (3.06 %), step = 1.719 mHz    (278 m%)
    ac: freq = 25.12 mHz   (3.33 %), step = 1.856 mHz    (278 m%)
    ac: freq = 27.12 mHz   (3.61 %), step = 2.004 mHz    (278 m%)
    ac: freq = 29.29 mHz   (3.89 %), step = 2.164 mHz    (278 m%)
    ac: freq = 31.62 mHz   (4.17 %), step = 2.336 mHz    (278 m%)
    ac: freq = 34.15 mHz   (4.44 %), step = 2.523 mHz    (278 m%)
    ac: freq = 36.87 mHz   (4.72 %), step = 2.724 mHz    (278 m%)
    ac: freq = 39.81 mHz      (5 %), step = 2.941 mHz    (278 m%)
    ac: freq = 42.99 mHz   (5.28 %), step = 3.176 mHz    (278 m%)
    ac: freq = 46.42 mHz   (5.56 %), step = 3.429 mHz    (278 m%)
    ac: freq = 50.12 mHz   (5.83 %), step = 3.703 mHz    (278 m%)
    ac: freq = 54.12 mHz   (6.11 %), step = 3.998 mHz    (278 m%)
    ac: freq = 58.43 mHz   (6.39 %), step = 4.317 mHz    (278 m%)
    ac: freq = 63.1 mHz    (6.67 %), step = 4.662 mHz    (278 m%)
    ac: freq = 68.13 mHz   (6.94 %), step = 5.033 mHz    (278 m%)
    ac: freq = 73.56 mHz   (7.22 %), step = 5.435 mHz    (278 m%)
    ac: freq = 79.43 mHz    (7.5 %), step = 5.869 mHz    (278 m%)
    ac: freq = 85.77 mHz   (7.78 %), step = 6.337 mHz    (278 m%)
    ac: freq = 92.61 mHz   (8.06 %), step = 6.842 mHz    (278 m%)
    ac: freq = 100 mHz     (8.33 %), step = 7.388 mHz    (278 m%)
    ac: freq = 108 mHz     (8.61 %), step = 7.978 mHz    (278 m%)
    ac: freq = 116.6 mHz   (8.89 %), step = 8.614 mHz    (278 m%)
    ac: freq = 125.9 mHz   (9.17 %), step = 9.301 mHz    (278 m%)
    ac: freq = 135.9 mHz   (9.44 %), step = 10.04 mHz    (278 m%)
    ac: freq = 146.8 mHz   (9.72 %), step = 10.84 mHz    (278 m%)
    ac: freq = 158.5 mHz     (10 %), step = 11.71 mHz    (278 m%)
    ac: freq = 171.1 mHz   (10.3 %), step = 12.64 mHz    (278 m%)
    ac: freq = 184.8 mHz   (10.6 %), step = 13.65 mHz    (278 m%)
    ac: freq = 199.5 mHz   (10.8 %), step = 14.74 mHz    (278 m%)
    ac: freq = 215.4 mHz   (11.1 %), step = 15.92 mHz    (278 m%)
    ac: freq = 232.6 mHz   (11.4 %), step = 17.19 mHz    (278 m%)
    ac: freq = 251.2 mHz   (11.7 %), step = 18.56 mHz    (278 m%)
    ac: freq = 271.2 mHz   (11.9 %), step = 20.04 mHz    (278 m%)
    ac: freq = 292.9 mHz   (12.2 %), step = 21.64 mHz    (278 m%)
    ac: freq = 316.2 mHz   (12.5 %), step = 23.36 mHz    (278 m%)
    ac: freq = 341.5 mHz   (12.8 %), step = 25.23 mHz    (278 m%)
    ac: freq = 368.7 mHz   (13.1 %), step = 27.24 mHz    (278 m%)
    ac: freq = 398.1 mHz   (13.3 %), step = 29.41 mHz    (278 m%)
    ac: freq = 429.9 mHz   (13.6 %), step = 31.76 mHz    (278 m%)
    ac: freq = 464.2 mHz   (13.9 %), step = 34.29 mHz    (278 m%)
    ac: freq = 501.2 mHz   (14.2 %), step = 37.03 mHz    (278 m%)
    ac: freq = 541.2 mHz   (14.4 %), step = 39.98 mHz    (278 m%)
    ac: freq = 584.3 mHz   (14.7 %), step = 43.17 mHz    (278 m%)
    ac: freq = 631 mHz       (15 %), step = 46.62 mHz    (278 m%)
    ac: freq = 681.3 mHz   (15.3 %), step = 50.33 mHz    (278 m%)
    ac: freq = 735.6 mHz   (15.6 %), step = 54.35 mHz    (278 m%)
    ac: freq = 794.3 mHz   (15.8 %), step = 58.69 mHz    (278 m%)
    ac: freq = 857.7 mHz   (16.1 %), step = 63.37 mHz    (278 m%)
    ac: freq = 926.1 mHz   (16.4 %), step = 68.42 mHz    (278 m%)
    ac: freq = 1 Hz        (16.7 %), step = 73.88 mHz    (278 m%)
    ac: freq = 1.08 Hz     (16.9 %), step = 79.78 mHz    (278 m%)
    ac: freq = 1.166 Hz    (17.2 %), step = 86.14 mHz    (278 m%)
    ac: freq = 1.259 Hz    (17.5 %), step = 93.01 mHz    (278 m%)
    ac: freq = 1.359 Hz    (17.8 %), step = 100.4 mHz    (278 m%)
    ac: freq = 1.468 Hz    (18.1 %), step = 108.4 mHz    (278 m%)
    ac: freq = 1.585 Hz    (18.3 %), step = 117.1 mHz    (278 m%)
    ac: freq = 1.711 Hz    (18.6 %), step = 126.4 mHz    (278 m%)
    ac: freq = 1.848 Hz    (18.9 %), step = 136.5 mHz    (278 m%)
    ac: freq = 1.995 Hz    (19.2 %), step = 147.4 mHz    (278 m%)
    ac: freq = 2.154 Hz    (19.4 %), step = 159.2 mHz    (278 m%)
    ac: freq = 2.326 Hz    (19.7 %), step = 171.9 mHz    (278 m%)
    ac: freq = 2.512 Hz      (20 %), step = 185.6 mHz    (278 m%)
    ac: freq = 2.712 Hz    (20.3 %), step = 200.4 mHz    (278 m%)
    ac: freq = 2.929 Hz    (20.6 %), step = 216.4 mHz    (278 m%)
    ac: freq = 3.162 Hz    (20.8 %), step = 233.6 mHz    (278 m%)
    ac: freq = 3.415 Hz    (21.1 %), step = 252.3 mHz    (278 m%)
    ac: freq = 3.687 Hz    (21.4 %), step = 272.4 mHz    (278 m%)
    ac: freq = 3.981 Hz    (21.7 %), step = 294.1 mHz    (278 m%)
    ac: freq = 4.299 Hz    (21.9 %), step = 317.6 mHz    (278 m%)
    ac: freq = 4.642 Hz    (22.2 %), step = 342.9 mHz    (278 m%)
    ac: freq = 5.012 Hz    (22.5 %), step = 370.3 mHz    (278 m%)
    ac: freq = 5.412 Hz    (22.8 %), step = 399.8 mHz    (278 m%)
    ac: freq = 5.843 Hz    (23.1 %), step = 431.7 mHz    (278 m%)
    ac: freq = 6.31 Hz     (23.3 %), step = 466.2 mHz    (278 m%)
    ac: freq = 6.813 Hz    (23.6 %), step = 503.3 mHz    (278 m%)
    ac: freq = 7.356 Hz    (23.9 %), step = 543.5 mHz    (278 m%)
    ac: freq = 7.943 Hz    (24.2 %), step = 586.9 mHz    (278 m%)
    ac: freq = 8.577 Hz    (24.4 %), step = 633.7 mHz    (278 m%)
    ac: freq = 9.261 Hz    (24.7 %), step = 684.2 mHz    (278 m%)
    ac: freq = 10 Hz         (25 %), step = 738.8 mHz    (278 m%)
    ac: freq = 10.8 Hz     (25.3 %), step = 797.8 mHz    (278 m%)
    ac: freq = 11.66 Hz    (25.6 %), step = 861.4 mHz    (278 m%)
    ac: freq = 12.59 Hz    (25.8 %), step = 930.1 mHz    (278 m%)
    ac: freq = 13.59 Hz    (26.1 %), step = 1.004 Hz     (278 m%)
    ac: freq = 14.68 Hz    (26.4 %), step = 1.084 Hz     (278 m%)
    ac: freq = 15.85 Hz    (26.7 %), step = 1.171 Hz     (278 m%)
    ac: freq = 17.11 Hz    (26.9 %), step = 1.264 Hz     (278 m%)
    ac: freq = 18.48 Hz    (27.2 %), step = 1.365 Hz     (278 m%)
    ac: freq = 19.95 Hz    (27.5 %), step = 1.474 Hz     (278 m%)
    ac: freq = 21.54 Hz    (27.8 %), step = 1.592 Hz     (278 m%)
    ac: freq = 23.26 Hz    (28.1 %), step = 1.719 Hz     (278 m%)
    ac: freq = 25.12 Hz    (28.3 %), step = 1.856 Hz     (278 m%)
    ac: freq = 27.12 Hz    (28.6 %), step = 2.004 Hz     (278 m%)
    ac: freq = 29.29 Hz    (28.9 %), step = 2.164 Hz     (278 m%)
    ac: freq = 31.62 Hz    (29.2 %), step = 2.336 Hz     (278 m%)
    ac: freq = 34.15 Hz    (29.4 %), step = 2.523 Hz     (278 m%)
    ac: freq = 36.87 Hz    (29.7 %), step = 2.724 Hz     (278 m%)
    ac: freq = 39.81 Hz      (30 %), step = 2.941 Hz     (278 m%)
    ac: freq = 42.99 Hz    (30.3 %), step = 3.176 Hz     (278 m%)
    ac: freq = 46.42 Hz    (30.6 %), step = 3.429 Hz     (278 m%)
    ac: freq = 50.12 Hz    (30.8 %), step = 3.703 Hz     (278 m%)
    ac: freq = 54.12 Hz    (31.1 %), step = 3.998 Hz     (278 m%)
    ac: freq = 58.43 Hz    (31.4 %), step = 4.317 Hz     (278 m%)
    ac: freq = 63.1 Hz     (31.7 %), step = 4.662 Hz     (278 m%)
    ac: freq = 68.13 Hz    (31.9 %), step = 5.033 Hz     (278 m%)
    ac: freq = 73.56 Hz    (32.2 %), step = 5.435 Hz     (278 m%)
    ac: freq = 79.43 Hz    (32.5 %), step = 5.869 Hz     (278 m%)
    ac: freq = 85.77 Hz    (32.8 %), step = 6.337 Hz     (278 m%)
    ac: freq = 92.61 Hz    (33.1 %), step = 6.842 Hz     (278 m%)
    ac: freq = 100 Hz      (33.3 %), step = 7.388 Hz     (278 m%)
    ac: freq = 108 Hz      (33.6 %), step = 7.978 Hz     (278 m%)
    ac: freq = 116.6 Hz    (33.9 %), step = 8.614 Hz     (278 m%)
    ac: freq = 125.9 Hz    (34.2 %), step = 9.301 Hz     (278 m%)
    ac: freq = 135.9 Hz    (34.4 %), step = 10.04 Hz     (278 m%)
    ac: freq = 146.8 Hz    (34.7 %), step = 10.84 Hz     (278 m%)
    ac: freq = 158.5 Hz      (35 %), step = 11.71 Hz     (278 m%)
    ac: freq = 171.1 Hz    (35.3 %), step = 12.64 Hz     (278 m%)
    ac: freq = 184.8 Hz    (35.6 %), step = 13.65 Hz     (278 m%)
    ac: freq = 199.5 Hz    (35.8 %), step = 14.74 Hz     (278 m%)
    ac: freq = 215.4 Hz    (36.1 %), step = 15.92 Hz     (278 m%)
    ac: freq = 232.6 Hz    (36.4 %), step = 17.19 Hz     (278 m%)
    ac: freq = 251.2 Hz    (36.7 %), step = 18.56 Hz     (278 m%)
    ac: freq = 271.2 Hz    (36.9 %), step = 20.04 Hz     (278 m%)
    ac: freq = 292.9 Hz    (37.2 %), step = 21.64 Hz     (278 m%)
    ac: freq = 316.2 Hz    (37.5 %), step = 23.36 Hz     (278 m%)
    ac: freq = 341.5 Hz    (37.8 %), step = 25.23 Hz     (278 m%)
    ac: freq = 368.7 Hz    (38.1 %), step = 27.24 Hz     (278 m%)
    ac: freq = 398.1 Hz    (38.3 %), step = 29.41 Hz     (278 m%)
    ac: freq = 429.9 Hz    (38.6 %), step = 31.76 Hz     (278 m%)
    ac: freq = 464.2 Hz    (38.9 %), step = 34.29 Hz     (278 m%)
    ac: freq = 501.2 Hz    (39.2 %), step = 37.03 Hz     (278 m%)
    ac: freq = 541.2 Hz    (39.4 %), step = 39.98 Hz     (278 m%)
    ac: freq = 584.3 Hz    (39.7 %), step = 43.17 Hz     (278 m%)
    ac: freq = 631 Hz        (40 %), step = 46.62 Hz     (278 m%)
    ac: freq = 681.3 Hz    (40.3 %), step = 50.33 Hz     (278 m%)
    ac: freq = 735.6 Hz    (40.6 %), step = 54.35 Hz     (278 m%)
    ac: freq = 794.3 Hz    (40.8 %), step = 58.69 Hz     (278 m%)
    ac: freq = 857.7 Hz    (41.1 %), step = 63.37 Hz     (278 m%)
    ac: freq = 926.1 Hz    (41.4 %), step = 68.42 Hz     (278 m%)
    ac: freq = 1 kHz       (41.7 %), step = 73.88 Hz     (278 m%)
    ac: freq = 1.08 kHz    (41.9 %), step = 79.78 Hz     (278 m%)
    ac: freq = 1.166 kHz   (42.2 %), step = 86.14 Hz     (278 m%)
    ac: freq = 1.259 kHz   (42.5 %), step = 93.01 Hz     (278 m%)
    ac: freq = 1.359 kHz   (42.8 %), step = 100.4 Hz     (278 m%)
    ac: freq = 1.468 kHz   (43.1 %), step = 108.4 Hz     (278 m%)
    ac: freq = 1.585 kHz   (43.3 %), step = 117.1 Hz     (278 m%)
    ac: freq = 1.711 kHz   (43.6 %), step = 126.4 Hz     (278 m%)
    ac: freq = 1.848 kHz   (43.9 %), step = 136.5 Hz     (278 m%)
    ac: freq = 1.995 kHz   (44.2 %), step = 147.4 Hz     (278 m%)
    ac: freq = 2.154 kHz   (44.4 %), step = 159.2 Hz     (278 m%)
    ac: freq = 2.326 kHz   (44.7 %), step = 171.9 Hz     (278 m%)
    ac: freq = 2.512 kHz     (45 %), step = 185.6 Hz     (278 m%)
    ac: freq = 2.712 kHz   (45.3 %), step = 200.4 Hz     (278 m%)
    ac: freq = 2.929 kHz   (45.6 %), step = 216.4 Hz     (278 m%)
    ac: freq = 3.162 kHz   (45.8 %), step = 233.6 Hz     (278 m%)
    ac: freq = 3.415 kHz   (46.1 %), step = 252.3 Hz     (278 m%)
    ac: freq = 3.687 kHz   (46.4 %), step = 272.4 Hz     (278 m%)
    ac: freq = 3.981 kHz   (46.7 %), step = 294.1 Hz     (278 m%)
    ac: freq = 4.299 kHz   (46.9 %), step = 317.6 Hz     (278 m%)
    ac: freq = 4.642 kHz   (47.2 %), step = 342.9 Hz     (278 m%)
    ac: freq = 5.012 kHz   (47.5 %), step = 370.3 Hz     (278 m%)
    ac: freq = 5.412 kHz   (47.8 %), step = 399.8 Hz     (278 m%)
    ac: freq = 5.843 kHz   (48.1 %), step = 431.7 Hz     (278 m%)
    ac: freq = 6.31 kHz    (48.3 %), step = 466.2 Hz     (278 m%)
    ac: freq = 6.813 kHz   (48.6 %), step = 503.3 Hz     (278 m%)
    ac: freq = 7.356 kHz   (48.9 %), step = 543.5 Hz     (278 m%)
    ac: freq = 7.943 kHz   (49.2 %), step = 586.9 Hz     (278 m%)
    ac: freq = 8.577 kHz   (49.4 %), step = 633.7 Hz     (278 m%)
    ac: freq = 9.261 kHz   (49.7 %), step = 684.2 Hz     (278 m%)
    ac: freq = 10 kHz        (50 %), step = 738.8 Hz     (278 m%)
    ac: freq = 10.8 kHz    (50.3 %), step = 797.8 Hz     (278 m%)
    ac: freq = 11.66 kHz   (50.6 %), step = 861.4 Hz     (278 m%)
    ac: freq = 12.59 kHz   (50.8 %), step = 930.1 Hz     (278 m%)
    ac: freq = 13.59 kHz   (51.1 %), step = 1.004 kHz    (278 m%)
    ac: freq = 14.68 kHz   (51.4 %), step = 1.084 kHz    (278 m%)
    ac: freq = 15.85 kHz   (51.7 %), step = 1.171 kHz    (278 m%)
    ac: freq = 17.11 kHz   (51.9 %), step = 1.264 kHz    (278 m%)
    ac: freq = 18.48 kHz   (52.2 %), step = 1.365 kHz    (278 m%)
    ac: freq = 19.95 kHz   (52.5 %), step = 1.474 kHz    (278 m%)
    ac: freq = 21.54 kHz   (52.8 %), step = 1.592 kHz    (278 m%)
    ac: freq = 23.26 kHz   (53.1 %), step = 1.719 kHz    (278 m%)
    ac: freq = 25.12 kHz   (53.3 %), step = 1.856 kHz    (278 m%)
    ac: freq = 27.12 kHz   (53.6 %), step = 2.004 kHz    (278 m%)
    ac: freq = 29.29 kHz   (53.9 %), step = 2.164 kHz    (278 m%)
    ac: freq = 31.62 kHz   (54.2 %), step = 2.336 kHz    (278 m%)
    ac: freq = 34.15 kHz   (54.4 %), step = 2.523 kHz    (278 m%)
    ac: freq = 36.87 kHz   (54.7 %), step = 2.724 kHz    (278 m%)
    ac: freq = 39.81 kHz     (55 %), step = 2.941 kHz    (278 m%)
    ac: freq = 42.99 kHz   (55.3 %), step = 3.176 kHz    (278 m%)
    ac: freq = 46.42 kHz   (55.6 %), step = 3.429 kHz    (278 m%)
    ac: freq = 50.12 kHz   (55.8 %), step = 3.703 kHz    (278 m%)
    ac: freq = 54.12 kHz   (56.1 %), step = 3.998 kHz    (278 m%)
    ac: freq = 58.43 kHz   (56.4 %), step = 4.317 kHz    (278 m%)
    ac: freq = 63.1 kHz    (56.7 %), step = 4.662 kHz    (278 m%)
    ac: freq = 68.13 kHz   (56.9 %), step = 5.033 kHz    (278 m%)
    ac: freq = 73.56 kHz   (57.2 %), step = 5.435 kHz    (278 m%)
    ac: freq = 79.43 kHz   (57.5 %), step = 5.869 kHz    (278 m%)
    ac: freq = 85.77 kHz   (57.8 %), step = 6.337 kHz    (278 m%)
    ac: freq = 92.61 kHz   (58.1 %), step = 6.842 kHz    (278 m%)
    ac: freq = 100 kHz     (58.3 %), step = 7.388 kHz    (278 m%)
    ac: freq = 108 kHz     (58.6 %), step = 7.978 kHz    (278 m%)
    ac: freq = 116.6 kHz   (58.9 %), step = 8.614 kHz    (278 m%)
    ac: freq = 125.9 kHz   (59.2 %), step = 9.301 kHz    (278 m%)
    ac: freq = 135.9 kHz   (59.4 %), step = 10.04 kHz    (278 m%)
    ac: freq = 146.8 kHz   (59.7 %), step = 10.84 kHz    (278 m%)
    ac: freq = 158.5 kHz     (60 %), step = 11.71 kHz    (278 m%)
    ac: freq = 171.1 kHz   (60.3 %), step = 12.64 kHz    (278 m%)
    ac: freq = 184.8 kHz   (60.6 %), step = 13.65 kHz    (278 m%)
    ac: freq = 199.5 kHz   (60.8 %), step = 14.74 kHz    (278 m%)
    ac: freq = 215.4 kHz   (61.1 %), step = 15.92 kHz    (278 m%)
    ac: freq = 232.6 kHz   (61.4 %), step = 17.19 kHz    (278 m%)
    ac: freq = 251.2 kHz   (61.7 %), step = 18.56 kHz    (278 m%)
    ac: freq = 271.2 kHz   (61.9 %), step = 20.04 kHz    (278 m%)
    ac: freq = 292.9 kHz   (62.2 %), step = 21.64 kHz    (278 m%)
    ac: freq = 316.2 kHz   (62.5 %), step = 23.36 kHz    (278 m%)
    ac: freq = 341.5 kHz   (62.8 %), step = 25.23 kHz    (278 m%)
    ac: freq = 368.7 kHz   (63.1 %), step = 27.24 kHz    (278 m%)
    ac: freq = 398.1 kHz   (63.3 %), step = 29.41 kHz    (278 m%)
    ac: freq = 429.9 kHz   (63.6 %), step = 31.76 kHz    (278 m%)
    ac: freq = 464.2 kHz   (63.9 %), step = 34.29 kHz    (278 m%)
    ac: freq = 501.2 kHz   (64.2 %), step = 37.03 kHz    (278 m%)
    ac: freq = 541.2 kHz   (64.4 %), step = 39.98 kHz    (278 m%)
    ac: freq = 584.3 kHz   (64.7 %), step = 43.17 kHz    (278 m%)
    ac: freq = 631 kHz       (65 %), step = 46.62 kHz    (278 m%)
    ac: freq = 681.3 kHz   (65.3 %), step = 50.33 kHz    (278 m%)
    ac: freq = 735.6 kHz   (65.6 %), step = 54.35 kHz    (278 m%)
    ac: freq = 794.3 kHz   (65.8 %), step = 58.69 kHz    (278 m%)
    ac: freq = 857.7 kHz   (66.1 %), step = 63.37 kHz    (278 m%)
    ac: freq = 926.1 kHz   (66.4 %), step = 68.42 kHz    (278 m%)
    ac: freq = 1 MHz       (66.7 %), step = 73.88 kHz    (278 m%)
    ac: freq = 1.08 MHz    (66.9 %), step = 79.78 kHz    (278 m%)
    ac: freq = 1.166 MHz   (67.2 %), step = 86.14 kHz    (278 m%)
    ac: freq = 1.259 MHz   (67.5 %), step = 93.01 kHz    (278 m%)
    ac: freq = 1.359 MHz   (67.8 %), step = 100.4 kHz    (278 m%)
    ac: freq = 1.468 MHz   (68.1 %), step = 108.4 kHz    (278 m%)
    ac: freq = 1.585 MHz   (68.3 %), step = 117.1 kHz    (278 m%)
    ac: freq = 1.711 MHz   (68.6 %), step = 126.4 kHz    (278 m%)
    ac: freq = 1.848 MHz   (68.9 %), step = 136.5 kHz    (278 m%)
    ac: freq = 1.995 MHz   (69.2 %), step = 147.4 kHz    (278 m%)
    ac: freq = 2.154 MHz   (69.4 %), step = 159.2 kHz    (278 m%)
    ac: freq = 2.326 MHz   (69.7 %), step = 171.9 kHz    (278 m%)
    ac: freq = 2.512 MHz     (70 %), step = 185.6 kHz    (278 m%)
    ac: freq = 2.712 MHz   (70.3 %), step = 200.4 kHz    (278 m%)
    ac: freq = 2.929 MHz   (70.6 %), step = 216.4 kHz    (278 m%)
    ac: freq = 3.162 MHz   (70.8 %), step = 233.6 kHz    (278 m%)
    ac: freq = 3.415 MHz   (71.1 %), step = 252.3 kHz    (278 m%)
    ac: freq = 3.687 MHz   (71.4 %), step = 272.4 kHz    (278 m%)
    ac: freq = 3.981 MHz   (71.7 %), step = 294.1 kHz    (278 m%)
    ac: freq = 4.299 MHz   (71.9 %), step = 317.6 kHz    (278 m%)
    ac: freq = 4.642 MHz   (72.2 %), step = 342.9 kHz    (278 m%)
    ac: freq = 5.012 MHz   (72.5 %), step = 370.3 kHz    (278 m%)
    ac: freq = 5.412 MHz   (72.8 %), step = 399.8 kHz    (278 m%)
    ac: freq = 5.843 MHz   (73.1 %), step = 431.7 kHz    (278 m%)
    ac: freq = 6.31 MHz    (73.3 %), step = 466.2 kHz    (278 m%)
    ac: freq = 6.813 MHz   (73.6 %), step = 503.3 kHz    (278 m%)
    ac: freq = 7.356 MHz   (73.9 %), step = 543.5 kHz    (278 m%)
    ac: freq = 7.943 MHz   (74.2 %), step = 586.9 kHz    (278 m%)
    ac: freq = 8.577 MHz   (74.4 %), step = 633.7 kHz    (278 m%)
    ac: freq = 9.261 MHz   (74.7 %), step = 684.2 kHz    (278 m%)
    ac: freq = 10 MHz        (75 %), step = 738.8 kHz    (278 m%)
    ac: freq = 10.8 MHz    (75.3 %), step = 797.8 kHz    (278 m%)
    ac: freq = 11.66 MHz   (75.6 %), step = 861.4 kHz    (278 m%)
    ac: freq = 12.59 MHz   (75.8 %), step = 930.1 kHz    (278 m%)
    ac: freq = 13.59 MHz   (76.1 %), step = 1.004 MHz    (278 m%)
    ac: freq = 14.68 MHz   (76.4 %), step = 1.084 MHz    (278 m%)
    ac: freq = 15.85 MHz   (76.7 %), step = 1.171 MHz    (278 m%)
    ac: freq = 17.11 MHz   (76.9 %), step = 1.264 MHz    (278 m%)
    ac: freq = 18.48 MHz   (77.2 %), step = 1.365 MHz    (278 m%)
    ac: freq = 19.95 MHz   (77.5 %), step = 1.474 MHz    (278 m%)
    ac: freq = 21.54 MHz   (77.8 %), step = 1.592 MHz    (278 m%)
    ac: freq = 23.26 MHz   (78.1 %), step = 1.719 MHz    (278 m%)
    ac: freq = 25.12 MHz   (78.3 %), step = 1.856 MHz    (278 m%)
    ac: freq = 27.12 MHz   (78.6 %), step = 2.004 MHz    (278 m%)
    ac: freq = 29.29 MHz   (78.9 %), step = 2.164 MHz    (278 m%)
    ac: freq = 31.62 MHz   (79.2 %), step = 2.336 MHz    (278 m%)
    ac: freq = 34.15 MHz   (79.4 %), step = 2.523 MHz    (278 m%)
    ac: freq = 36.87 MHz   (79.7 %), step = 2.724 MHz    (278 m%)
    ac: freq = 39.81 MHz     (80 %), step = 2.941 MHz    (278 m%)
    ac: freq = 42.99 MHz   (80.3 %), step = 3.176 MHz    (278 m%)
    ac: freq = 46.42 MHz   (80.6 %), step = 3.429 MHz    (278 m%)
    ac: freq = 50.12 MHz   (80.8 %), step = 3.703 MHz    (278 m%)
    ac: freq = 54.12 MHz   (81.1 %), step = 3.998 MHz    (278 m%)
    ac: freq = 58.43 MHz   (81.4 %), step = 4.317 MHz    (278 m%)
    ac: freq = 63.1 MHz    (81.7 %), step = 4.662 MHz    (278 m%)
    ac: freq = 68.13 MHz   (81.9 %), step = 5.033 MHz    (278 m%)
    ac: freq = 73.56 MHz   (82.2 %), step = 5.435 MHz    (278 m%)
    ac: freq = 79.43 MHz   (82.5 %), step = 5.869 MHz    (278 m%)
    ac: freq = 85.77 MHz   (82.8 %), step = 6.337 MHz    (278 m%)
    ac: freq = 92.61 MHz   (83.1 %), step = 6.842 MHz    (278 m%)
    ac: freq = 100 MHz     (83.3 %), step = 7.388 MHz    (278 m%)
    ac: freq = 108 MHz     (83.6 %), step = 7.978 MHz    (278 m%)
    ac: freq = 116.6 MHz   (83.9 %), step = 8.614 MHz    (278 m%)
    ac: freq = 125.9 MHz   (84.2 %), step = 9.301 MHz    (278 m%)
    ac: freq = 135.9 MHz   (84.4 %), step = 10.04 MHz    (278 m%)
    ac: freq = 146.8 MHz   (84.7 %), step = 10.84 MHz    (278 m%)
    ac: freq = 158.5 MHz     (85 %), step = 11.71 MHz    (278 m%)
    ac: freq = 171.1 MHz   (85.3 %), step = 12.64 MHz    (278 m%)
    ac: freq = 184.8 MHz   (85.6 %), step = 13.65 MHz    (278 m%)
    ac: freq = 199.5 MHz   (85.8 %), step = 14.74 MHz    (278 m%)
    ac: freq = 215.4 MHz   (86.1 %), step = 15.92 MHz    (278 m%)
    ac: freq = 232.6 MHz   (86.4 %), step = 17.19 MHz    (278 m%)
    ac: freq = 251.2 MHz   (86.7 %), step = 18.56 MHz    (278 m%)
    ac: freq = 271.2 MHz   (86.9 %), step = 20.04 MHz    (278 m%)
    ac: freq = 292.9 MHz   (87.2 %), step = 21.64 MHz    (278 m%)
    ac: freq = 316.2 MHz   (87.5 %), step = 23.36 MHz    (278 m%)
    ac: freq = 341.5 MHz   (87.8 %), step = 25.23 MHz    (278 m%)
    ac: freq = 368.7 MHz   (88.1 %), step = 27.24 MHz    (278 m%)
    ac: freq = 398.1 MHz   (88.3 %), step = 29.41 MHz    (278 m%)
    ac: freq = 429.9 MHz   (88.6 %), step = 31.76 MHz    (278 m%)
    ac: freq = 464.2 MHz   (88.9 %), step = 34.29 MHz    (278 m%)
    ac: freq = 501.2 MHz   (89.2 %), step = 37.03 MHz    (278 m%)
    ac: freq = 541.2 MHz   (89.4 %), step = 39.98 MHz    (278 m%)
    ac: freq = 584.3 MHz   (89.7 %), step = 43.17 MHz    (278 m%)
    ac: freq = 631 MHz       (90 %), step = 46.62 MHz    (278 m%)
    ac: freq = 681.3 MHz   (90.3 %), step = 50.33 MHz    (278 m%)
    ac: freq = 735.6 MHz   (90.6 %), step = 54.35 MHz    (278 m%)
    ac: freq = 794.3 MHz   (90.8 %), step = 58.69 MHz    (278 m%)
    ac: freq = 857.7 MHz   (91.1 %), step = 63.37 MHz    (278 m%)
    ac: freq = 926.1 MHz   (91.4 %), step = 68.42 MHz    (278 m%)
    ac: freq = 1 GHz       (91.7 %), step = 73.88 MHz    (278 m%)
    ac: freq = 1.08 GHz    (91.9 %), step = 79.78 MHz    (278 m%)
    ac: freq = 1.166 GHz   (92.2 %), step = 86.14 MHz    (278 m%)
    ac: freq = 1.259 GHz   (92.5 %), step = 93.01 MHz    (278 m%)
    ac: freq = 1.359 GHz   (92.8 %), step = 100.4 MHz    (278 m%)
    ac: freq = 1.468 GHz   (93.1 %), step = 108.4 MHz    (278 m%)
    ac: freq = 1.585 GHz   (93.3 %), step = 117.1 MHz    (278 m%)
    ac: freq = 1.711 GHz   (93.6 %), step = 126.4 MHz    (278 m%)
    ac: freq = 1.848 GHz   (93.9 %), step = 136.5 MHz    (278 m%)
    ac: freq = 1.995 GHz   (94.2 %), step = 147.4 MHz    (278 m%)
    ac: freq = 2.154 GHz   (94.4 %), step = 159.2 MHz    (278 m%)
    ac: freq = 2.326 GHz   (94.7 %), step = 171.9 MHz    (278 m%)
    ac: freq = 2.512 GHz     (95 %), step = 185.6 MHz    (278 m%)
    ac: freq = 2.712 GHz   (95.3 %), step = 200.4 MHz    (278 m%)
    ac: freq = 2.929 GHz   (95.6 %), step = 216.4 MHz    (278 m%)
    ac: freq = 3.162 GHz   (95.8 %), step = 233.6 MHz    (278 m%)
    ac: freq = 3.415 GHz   (96.1 %), step = 252.3 MHz    (278 m%)
    ac: freq = 3.687 GHz   (96.4 %), step = 272.4 MHz    (278 m%)
    ac: freq = 3.981 GHz   (96.7 %), step = 294.1 MHz    (278 m%)
    ac: freq = 4.299 GHz   (96.9 %), step = 317.6 MHz    (278 m%)
    ac: freq = 4.642 GHz   (97.2 %), step = 342.9 MHz    (278 m%)
    ac: freq = 5.012 GHz   (97.5 %), step = 370.3 MHz    (278 m%)
    ac: freq = 5.412 GHz   (97.8 %), step = 399.8 MHz    (278 m%)
    ac: freq = 5.843 GHz   (98.1 %), step = 431.7 MHz    (278 m%)
    ac: freq = 6.31 GHz    (98.3 %), step = 466.2 MHz    (278 m%)
    ac: freq = 6.813 GHz   (98.6 %), step = 503.3 MHz    (278 m%)
    ac: freq = 7.356 GHz   (98.9 %), step = 543.5 MHz    (278 m%)
    ac: freq = 7.943 GHz   (99.2 %), step = 586.9 MHz    (278 m%)
    ac: freq = 8.577 GHz   (99.4 %), step = 633.7 MHz    (278 m%)
    ac: freq = 9.261 GHz   (99.7 %), step = 684.2 MHz    (278 m%)
    ac: freq = 10 GHz       (100 %), step = 738.8 MHz    (278 m%)
Accumulated DC solution time =            3.05796 ms.
Intrinsic ac analysis time =              75.835 ms.
Total time required for ac analysis `ac': CPU = 78.406 ms, elapsed = 80.044 ms, util. = 98%.
Time accumulated: CPU = 712.144 ms, elapsed = 1.23295 s.
Peak resident memory used = 207 Mbytes.


Notice from spectre.
    12 warnings suppressed.


*************************************************
Noise Analysis `noise': freq = (10 mHz -> 10 GHz)
*************************************************

Notice from spectre during Noise analysis `noise'.
    Operating points will not be recomputed: the circuit and conditions were not changed since previous analysis.


Opening the PSF file ../psf/noise.noise ...
    noise: freq = 19.95 mHz    (2.5 %), step = 1.474 mHz    (278 m%)
    noise: freq = 21.54 mHz   (2.78 %), step = 1.592 mHz    (278 m%)
    noise: freq = 23.26 mHz   (3.06 %), step = 1.719 mHz    (278 m%)
    noise: freq = 25.12 mHz   (3.33 %), step = 1.856 mHz    (278 m%)
    noise: freq = 27.12 mHz   (3.61 %), step = 2.004 mHz    (278 m%)
    noise: freq = 29.29 mHz   (3.89 %), step = 2.164 mHz    (278 m%)
    noise: freq = 31.62 mHz   (4.17 %), step = 2.336 mHz    (278 m%)
    noise: freq = 34.15 mHz   (4.44 %), step = 2.523 mHz    (278 m%)
    noise: freq = 36.87 mHz   (4.72 %), step = 2.724 mHz    (278 m%)
    noise: freq = 39.81 mHz      (5 %), step = 2.941 mHz    (278 m%)
    noise: freq = 42.99 mHz   (5.28 %), step = 3.176 mHz    (278 m%)
    noise: freq = 46.42 mHz   (5.56 %), step = 3.429 mHz    (278 m%)
    noise: freq = 50.12 mHz   (5.83 %), step = 3.703 mHz    (278 m%)
    noise: freq = 54.12 mHz   (6.11 %), step = 3.998 mHz    (278 m%)
    noise: freq = 58.43 mHz   (6.39 %), step = 4.317 mHz    (278 m%)
    noise: freq = 63.1 mHz    (6.67 %), step = 4.662 mHz    (278 m%)
    noise: freq = 68.13 mHz   (6.94 %), step = 5.033 mHz    (278 m%)
    noise: freq = 73.56 mHz   (7.22 %), step = 5.435 mHz    (278 m%)
    noise: freq = 79.43 mHz    (7.5 %), step = 5.869 mHz    (278 m%)
    noise: freq = 85.77 mHz   (7.78 %), step = 6.337 mHz    (278 m%)
    noise: freq = 92.61 mHz   (8.06 %), step = 6.842 mHz    (278 m%)
    noise: freq = 100 mHz     (8.33 %), step = 7.388 mHz    (278 m%)
    noise: freq = 108 mHz     (8.61 %), step = 7.978 mHz    (278 m%)
    noise: freq = 116.6 mHz   (8.89 %), step = 8.614 mHz    (278 m%)
    noise: freq = 125.9 mHz   (9.17 %), step = 9.301 mHz    (278 m%)
    noise: freq = 135.9 mHz   (9.44 %), step = 10.04 mHz    (278 m%)
    noise: freq = 146.8 mHz   (9.72 %), step = 10.84 mHz    (278 m%)
    noise: freq = 158.5 mHz     (10 %), step = 11.71 mHz    (278 m%)
    noise: freq = 171.1 mHz   (10.3 %), step = 12.64 mHz    (278 m%)
    noise: freq = 184.8 mHz   (10.6 %), step = 13.65 mHz    (278 m%)
    noise: freq = 199.5 mHz   (10.8 %), step = 14.74 mHz    (278 m%)
    noise: freq = 215.4 mHz   (11.1 %), step = 15.92 mHz    (278 m%)
    noise: freq = 232.6 mHz   (11.4 %), step = 17.19 mHz    (278 m%)
    noise: freq = 251.2 mHz   (11.7 %), step = 18.56 mHz    (278 m%)
    noise: freq = 271.2 mHz   (11.9 %), step = 20.04 mHz    (278 m%)
    noise: freq = 292.9 mHz   (12.2 %), step = 21.64 mHz    (278 m%)
    noise: freq = 316.2 mHz   (12.5 %), step = 23.36 mHz    (278 m%)
    noise: freq = 341.5 mHz   (12.8 %), step = 25.23 mHz    (278 m%)
    noise: freq = 368.7 mHz   (13.1 %), step = 27.24 mHz    (278 m%)
    noise: freq = 398.1 mHz   (13.3 %), step = 29.41 mHz    (278 m%)
    noise: freq = 429.9 mHz   (13.6 %), step = 31.76 mHz    (278 m%)
    noise: freq = 464.2 mHz   (13.9 %), step = 34.29 mHz    (278 m%)
    noise: freq = 501.2 mHz   (14.2 %), step = 37.03 mHz    (278 m%)
    noise: freq = 541.2 mHz   (14.4 %), step = 39.98 mHz    (278 m%)
    noise: freq = 584.3 mHz   (14.7 %), step = 43.17 mHz    (278 m%)
    noise: freq = 631 mHz       (15 %), step = 46.62 mHz    (278 m%)
    noise: freq = 681.3 mHz   (15.3 %), step = 50.33 mHz    (278 m%)
    noise: freq = 735.6 mHz   (15.6 %), step = 54.35 mHz    (278 m%)
    noise: freq = 794.3 mHz   (15.8 %), step = 58.69 mHz    (278 m%)
    noise: freq = 857.7 mHz   (16.1 %), step = 63.37 mHz    (278 m%)
    noise: freq = 926.1 mHz   (16.4 %), step = 68.42 mHz    (278 m%)
    noise: freq = 1 Hz        (16.7 %), step = 73.88 mHz    (278 m%)
    noise: freq = 1.08 Hz     (16.9 %), step = 79.78 mHz    (278 m%)
    noise: freq = 1.166 Hz    (17.2 %), step = 86.14 mHz    (278 m%)
    noise: freq = 1.259 Hz    (17.5 %), step = 93.01 mHz    (278 m%)
    noise: freq = 1.359 Hz    (17.8 %), step = 100.4 mHz    (278 m%)
    noise: freq = 1.468 Hz    (18.1 %), step = 108.4 mHz    (278 m%)
    noise: freq = 1.585 Hz    (18.3 %), step = 117.1 mHz    (278 m%)
    noise: freq = 1.711 Hz    (18.6 %), step = 126.4 mHz    (278 m%)
    noise: freq = 1.848 Hz    (18.9 %), step = 136.5 mHz    (278 m%)
    noise: freq = 1.995 Hz    (19.2 %), step = 147.4 mHz    (278 m%)
    noise: freq = 2.154 Hz    (19.4 %), step = 159.2 mHz    (278 m%)
    noise: freq = 2.326 Hz    (19.7 %), step = 171.9 mHz    (278 m%)
    noise: freq = 2.512 Hz      (20 %), step = 185.6 mHz    (278 m%)
    noise: freq = 2.712 Hz    (20.3 %), step = 200.4 mHz    (278 m%)
    noise: freq = 2.929 Hz    (20.6 %), step = 216.4 mHz    (278 m%)
    noise: freq = 3.162 Hz    (20.8 %), step = 233.6 mHz    (278 m%)
    noise: freq = 3.415 Hz    (21.1 %), step = 252.3 mHz    (278 m%)
    noise: freq = 3.687 Hz    (21.4 %), step = 272.4 mHz    (278 m%)
    noise: freq = 3.981 Hz    (21.7 %), step = 294.1 mHz    (278 m%)
    noise: freq = 4.299 Hz    (21.9 %), step = 317.6 mHz    (278 m%)
    noise: freq = 4.642 Hz    (22.2 %), step = 342.9 mHz    (278 m%)
    noise: freq = 5.012 Hz    (22.5 %), step = 370.3 mHz    (278 m%)
    noise: freq = 5.412 Hz    (22.8 %), step = 399.8 mHz    (278 m%)
    noise: freq = 5.843 Hz    (23.1 %), step = 431.7 mHz    (278 m%)
    noise: freq = 6.31 Hz     (23.3 %), step = 466.2 mHz    (278 m%)
    noise: freq = 6.813 Hz    (23.6 %), step = 503.3 mHz    (278 m%)
    noise: freq = 7.356 Hz    (23.9 %), step = 543.5 mHz    (278 m%)
    noise: freq = 7.943 Hz    (24.2 %), step = 586.9 mHz    (278 m%)
    noise: freq = 8.577 Hz    (24.4 %), step = 633.7 mHz    (278 m%)
    noise: freq = 9.261 Hz    (24.7 %), step = 684.2 mHz    (278 m%)
    noise: freq = 10 Hz         (25 %), step = 738.8 mHz    (278 m%)
    noise: freq = 10.8 Hz     (25.3 %), step = 797.8 mHz    (278 m%)
    noise: freq = 11.66 Hz    (25.6 %), step = 861.4 mHz    (278 m%)
    noise: freq = 12.59 Hz    (25.8 %), step = 930.1 mHz    (278 m%)
    noise: freq = 13.59 Hz    (26.1 %), step = 1.004 Hz     (278 m%)
    noise: freq = 14.68 Hz    (26.4 %), step = 1.084 Hz     (278 m%)
    noise: freq = 15.85 Hz    (26.7 %), step = 1.171 Hz     (278 m%)
    noise: freq = 17.11 Hz    (26.9 %), step = 1.264 Hz     (278 m%)
    noise: freq = 18.48 Hz    (27.2 %), step = 1.365 Hz     (278 m%)
    noise: freq = 19.95 Hz    (27.5 %), step = 1.474 Hz     (278 m%)
    noise: freq = 21.54 Hz    (27.8 %), step = 1.592 Hz     (278 m%)
    noise: freq = 23.26 Hz    (28.1 %), step = 1.719 Hz     (278 m%)
    noise: freq = 25.12 Hz    (28.3 %), step = 1.856 Hz     (278 m%)
    noise: freq = 27.12 Hz    (28.6 %), step = 2.004 Hz     (278 m%)
    noise: freq = 29.29 Hz    (28.9 %), step = 2.164 Hz     (278 m%)
    noise: freq = 31.62 Hz    (29.2 %), step = 2.336 Hz     (278 m%)
    noise: freq = 34.15 Hz    (29.4 %), step = 2.523 Hz     (278 m%)
    noise: freq = 36.87 Hz    (29.7 %), step = 2.724 Hz     (278 m%)
    noise: freq = 39.81 Hz      (30 %), step = 2.941 Hz     (278 m%)
    noise: freq = 42.99 Hz    (30.3 %), step = 3.176 Hz     (278 m%)
    noise: freq = 46.42 Hz    (30.6 %), step = 3.429 Hz     (278 m%)
    noise: freq = 50.12 Hz    (30.8 %), step = 3.703 Hz     (278 m%)
    noise: freq = 54.12 Hz    (31.1 %), step = 3.998 Hz     (278 m%)
    noise: freq = 58.43 Hz    (31.4 %), step = 4.317 Hz     (278 m%)
    noise: freq = 63.1 Hz     (31.7 %), step = 4.662 Hz     (278 m%)
    noise: freq = 68.13 Hz    (31.9 %), step = 5.033 Hz     (278 m%)
    noise: freq = 73.56 Hz    (32.2 %), step = 5.435 Hz     (278 m%)
    noise: freq = 79.43 Hz    (32.5 %), step = 5.869 Hz     (278 m%)
    noise: freq = 85.77 Hz    (32.8 %), step = 6.337 Hz     (278 m%)
    noise: freq = 92.61 Hz    (33.1 %), step = 6.842 Hz     (278 m%)
    noise: freq = 100 Hz      (33.3 %), step = 7.388 Hz     (278 m%)
    noise: freq = 108 Hz      (33.6 %), step = 7.978 Hz     (278 m%)
    noise: freq = 116.6 Hz    (33.9 %), step = 8.614 Hz     (278 m%)
    noise: freq = 125.9 Hz    (34.2 %), step = 9.301 Hz     (278 m%)
    noise: freq = 135.9 Hz    (34.4 %), step = 10.04 Hz     (278 m%)
    noise: freq = 146.8 Hz    (34.7 %), step = 10.84 Hz     (278 m%)
    noise: freq = 158.5 Hz      (35 %), step = 11.71 Hz     (278 m%)
    noise: freq = 171.1 Hz    (35.3 %), step = 12.64 Hz     (278 m%)
    noise: freq = 184.8 Hz    (35.6 %), step = 13.65 Hz     (278 m%)
    noise: freq = 199.5 Hz    (35.8 %), step = 14.74 Hz     (278 m%)
    noise: freq = 215.4 Hz    (36.1 %), step = 15.92 Hz     (278 m%)
    noise: freq = 232.6 Hz    (36.4 %), step = 17.19 Hz     (278 m%)
    noise: freq = 251.2 Hz    (36.7 %), step = 18.56 Hz     (278 m%)
    noise: freq = 271.2 Hz    (36.9 %), step = 20.04 Hz     (278 m%)
    noise: freq = 292.9 Hz    (37.2 %), step = 21.64 Hz     (278 m%)
    noise: freq = 316.2 Hz    (37.5 %), step = 23.36 Hz     (278 m%)
    noise: freq = 341.5 Hz    (37.8 %), step = 25.23 Hz     (278 m%)
    noise: freq = 368.7 Hz    (38.1 %), step = 27.24 Hz     (278 m%)
    noise: freq = 398.1 Hz    (38.3 %), step = 29.41 Hz     (278 m%)
    noise: freq = 429.9 Hz    (38.6 %), step = 31.76 Hz     (278 m%)
    noise: freq = 464.2 Hz    (38.9 %), step = 34.29 Hz     (278 m%)
    noise: freq = 501.2 Hz    (39.2 %), step = 37.03 Hz     (278 m%)
    noise: freq = 541.2 Hz    (39.4 %), step = 39.98 Hz     (278 m%)
    noise: freq = 584.3 Hz    (39.7 %), step = 43.17 Hz     (278 m%)
    noise: freq = 631 Hz        (40 %), step = 46.62 Hz     (278 m%)
    noise: freq = 681.3 Hz    (40.3 %), step = 50.33 Hz     (278 m%)
    noise: freq = 735.6 Hz    (40.6 %), step = 54.35 Hz     (278 m%)
    noise: freq = 794.3 Hz    (40.8 %), step = 58.69 Hz     (278 m%)
    noise: freq = 857.7 Hz    (41.1 %), step = 63.37 Hz     (278 m%)
    noise: freq = 926.1 Hz    (41.4 %), step = 68.42 Hz     (278 m%)
    noise: freq = 1 kHz       (41.7 %), step = 73.88 Hz     (278 m%)
    noise: freq = 1.08 kHz    (41.9 %), step = 79.78 Hz     (278 m%)
    noise: freq = 1.166 kHz   (42.2 %), step = 86.14 Hz     (278 m%)
    noise: freq = 1.259 kHz   (42.5 %), step = 93.01 Hz     (278 m%)
    noise: freq = 1.359 kHz   (42.8 %), step = 100.4 Hz     (278 m%)
    noise: freq = 1.468 kHz   (43.1 %), step = 108.4 Hz     (278 m%)
    noise: freq = 1.585 kHz   (43.3 %), step = 117.1 Hz     (278 m%)
    noise: freq = 1.711 kHz   (43.6 %), step = 126.4 Hz     (278 m%)
    noise: freq = 1.848 kHz   (43.9 %), step = 136.5 Hz     (278 m%)
    noise: freq = 1.995 kHz   (44.2 %), step = 147.4 Hz     (278 m%)
    noise: freq = 2.154 kHz   (44.4 %), step = 159.2 Hz     (278 m%)
    noise: freq = 2.326 kHz   (44.7 %), step = 171.9 Hz     (278 m%)
    noise: freq = 2.512 kHz     (45 %), step = 185.6 Hz     (278 m%)
    noise: freq = 2.712 kHz   (45.3 %), step = 200.4 Hz     (278 m%)
    noise: freq = 2.929 kHz   (45.6 %), step = 216.4 Hz     (278 m%)
    noise: freq = 3.162 kHz   (45.8 %), step = 233.6 Hz     (278 m%)
    noise: freq = 3.415 kHz   (46.1 %), step = 252.3 Hz     (278 m%)
    noise: freq = 3.687 kHz   (46.4 %), step = 272.4 Hz     (278 m%)
    noise: freq = 3.981 kHz   (46.7 %), step = 294.1 Hz     (278 m%)
    noise: freq = 4.299 kHz   (46.9 %), step = 317.6 Hz     (278 m%)
    noise: freq = 4.642 kHz   (47.2 %), step = 342.9 Hz     (278 m%)
    noise: freq = 5.012 kHz   (47.5 %), step = 370.3 Hz     (278 m%)
    noise: freq = 5.412 kHz   (47.8 %), step = 399.8 Hz     (278 m%)
    noise: freq = 5.843 kHz   (48.1 %), step = 431.7 Hz     (278 m%)
    noise: freq = 6.31 kHz    (48.3 %), step = 466.2 Hz     (278 m%)
    noise: freq = 6.813 kHz   (48.6 %), step = 503.3 Hz     (278 m%)
    noise: freq = 7.356 kHz   (48.9 %), step = 543.5 Hz     (278 m%)
    noise: freq = 7.943 kHz   (49.2 %), step = 586.9 Hz     (278 m%)
    noise: freq = 8.577 kHz   (49.4 %), step = 633.7 Hz     (278 m%)
    noise: freq = 9.261 kHz   (49.7 %), step = 684.2 Hz     (278 m%)
    noise: freq = 10 kHz        (50 %), step = 738.8 Hz     (278 m%)
    noise: freq = 10.8 kHz    (50.3 %), step = 797.8 Hz     (278 m%)
    noise: freq = 11.66 kHz   (50.6 %), step = 861.4 Hz     (278 m%)
    noise: freq = 12.59 kHz   (50.8 %), step = 930.1 Hz     (278 m%)
    noise: freq = 13.59 kHz   (51.1 %), step = 1.004 kHz    (278 m%)
    noise: freq = 14.68 kHz   (51.4 %), step = 1.084 kHz    (278 m%)
    noise: freq = 15.85 kHz   (51.7 %), step = 1.171 kHz    (278 m%)
    noise: freq = 17.11 kHz   (51.9 %), step = 1.264 kHz    (278 m%)
    noise: freq = 18.48 kHz   (52.2 %), step = 1.365 kHz    (278 m%)
    noise: freq = 19.95 kHz   (52.5 %), step = 1.474 kHz    (278 m%)
    noise: freq = 21.54 kHz   (52.8 %), step = 1.592 kHz    (278 m%)
    noise: freq = 23.26 kHz   (53.1 %), step = 1.719 kHz    (278 m%)
    noise: freq = 25.12 kHz   (53.3 %), step = 1.856 kHz    (278 m%)
    noise: freq = 27.12 kHz   (53.6 %), step = 2.004 kHz    (278 m%)
    noise: freq = 29.29 kHz   (53.9 %), step = 2.164 kHz    (278 m%)
    noise: freq = 31.62 kHz   (54.2 %), step = 2.336 kHz    (278 m%)
    noise: freq = 34.15 kHz   (54.4 %), step = 2.523 kHz    (278 m%)
    noise: freq = 36.87 kHz   (54.7 %), step = 2.724 kHz    (278 m%)
    noise: freq = 39.81 kHz     (55 %), step = 2.941 kHz    (278 m%)
    noise: freq = 42.99 kHz   (55.3 %), step = 3.176 kHz    (278 m%)
    noise: freq = 46.42 kHz   (55.6 %), step = 3.429 kHz    (278 m%)
    noise: freq = 50.12 kHz   (55.8 %), step = 3.703 kHz    (278 m%)
    noise: freq = 54.12 kHz   (56.1 %), step = 3.998 kHz    (278 m%)
    noise: freq = 58.43 kHz   (56.4 %), step = 4.317 kHz    (278 m%)
    noise: freq = 63.1 kHz    (56.7 %), step = 4.662 kHz    (278 m%)
    noise: freq = 68.13 kHz   (56.9 %), step = 5.033 kHz    (278 m%)
    noise: freq = 73.56 kHz   (57.2 %), step = 5.435 kHz    (278 m%)
    noise: freq = 79.43 kHz   (57.5 %), step = 5.869 kHz    (278 m%)
    noise: freq = 85.77 kHz   (57.8 %), step = 6.337 kHz    (278 m%)
    noise: freq = 92.61 kHz   (58.1 %), step = 6.842 kHz    (278 m%)
    noise: freq = 100 kHz     (58.3 %), step = 7.388 kHz    (278 m%)
    noise: freq = 108 kHz     (58.6 %), step = 7.978 kHz    (278 m%)
    noise: freq = 116.6 kHz   (58.9 %), step = 8.614 kHz    (278 m%)
    noise: freq = 125.9 kHz   (59.2 %), step = 9.301 kHz    (278 m%)
    noise: freq = 135.9 kHz   (59.4 %), step = 10.04 kHz    (278 m%)
    noise: freq = 146.8 kHz   (59.7 %), step = 10.84 kHz    (278 m%)
    noise: freq = 158.5 kHz     (60 %), step = 11.71 kHz    (278 m%)
    noise: freq = 171.1 kHz   (60.3 %), step = 12.64 kHz    (278 m%)
    noise: freq = 184.8 kHz   (60.6 %), step = 13.65 kHz    (278 m%)
    noise: freq = 199.5 kHz   (60.8 %), step = 14.74 kHz    (278 m%)
    noise: freq = 215.4 kHz   (61.1 %), step = 15.92 kHz    (278 m%)
    noise: freq = 232.6 kHz   (61.4 %), step = 17.19 kHz    (278 m%)
    noise: freq = 251.2 kHz   (61.7 %), step = 18.56 kHz    (278 m%)
    noise: freq = 271.2 kHz   (61.9 %), step = 20.04 kHz    (278 m%)
    noise: freq = 292.9 kHz   (62.2 %), step = 21.64 kHz    (278 m%)
    noise: freq = 316.2 kHz   (62.5 %), step = 23.36 kHz    (278 m%)
    noise: freq = 341.5 kHz   (62.8 %), step = 25.23 kHz    (278 m%)
    noise: freq = 368.7 kHz   (63.1 %), step = 27.24 kHz    (278 m%)
    noise: freq = 398.1 kHz   (63.3 %), step = 29.41 kHz    (278 m%)
    noise: freq = 429.9 kHz   (63.6 %), step = 31.76 kHz    (278 m%)
    noise: freq = 464.2 kHz   (63.9 %), step = 34.29 kHz    (278 m%)
    noise: freq = 501.2 kHz   (64.2 %), step = 37.03 kHz    (278 m%)
    noise: freq = 541.2 kHz   (64.4 %), step = 39.98 kHz    (278 m%)
    noise: freq = 584.3 kHz   (64.7 %), step = 43.17 kHz    (278 m%)
    noise: freq = 631 kHz       (65 %), step = 46.62 kHz    (278 m%)
    noise: freq = 681.3 kHz   (65.3 %), step = 50.33 kHz    (278 m%)
    noise: freq = 735.6 kHz   (65.6 %), step = 54.35 kHz    (278 m%)
    noise: freq = 794.3 kHz   (65.8 %), step = 58.69 kHz    (278 m%)
    noise: freq = 857.7 kHz   (66.1 %), step = 63.37 kHz    (278 m%)
    noise: freq = 926.1 kHz   (66.4 %), step = 68.42 kHz    (278 m%)
    noise: freq = 1 MHz       (66.7 %), step = 73.88 kHz    (278 m%)
    noise: freq = 1.08 MHz    (66.9 %), step = 79.78 kHz    (278 m%)
    noise: freq = 1.166 MHz   (67.2 %), step = 86.14 kHz    (278 m%)
    noise: freq = 1.259 MHz   (67.5 %), step = 93.01 kHz    (278 m%)
    noise: freq = 1.359 MHz   (67.8 %), step = 100.4 kHz    (278 m%)
    noise: freq = 1.468 MHz   (68.1 %), step = 108.4 kHz    (278 m%)
    noise: freq = 1.585 MHz   (68.3 %), step = 117.1 kHz    (278 m%)
    noise: freq = 1.711 MHz   (68.6 %), step = 126.4 kHz    (278 m%)
    noise: freq = 1.848 MHz   (68.9 %), step = 136.5 kHz    (278 m%)
    noise: freq = 1.995 MHz   (69.2 %), step = 147.4 kHz    (278 m%)
    noise: freq = 2.154 MHz   (69.4 %), step = 159.2 kHz    (278 m%)
    noise: freq = 2.326 MHz   (69.7 %), step = 171.9 kHz    (278 m%)
    noise: freq = 2.512 MHz     (70 %), step = 185.6 kHz    (278 m%)
    noise: freq = 2.712 MHz   (70.3 %), step = 200.4 kHz    (278 m%)
    noise: freq = 2.929 MHz   (70.6 %), step = 216.4 kHz    (278 m%)
    noise: freq = 3.162 MHz   (70.8 %), step = 233.6 kHz    (278 m%)
    noise: freq = 3.415 MHz   (71.1 %), step = 252.3 kHz    (278 m%)
    noise: freq = 3.687 MHz   (71.4 %), step = 272.4 kHz    (278 m%)
    noise: freq = 3.981 MHz   (71.7 %), step = 294.1 kHz    (278 m%)
    noise: freq = 4.299 MHz   (71.9 %), step = 317.6 kHz    (278 m%)
    noise: freq = 4.642 MHz   (72.2 %), step = 342.9 kHz    (278 m%)
    noise: freq = 5.012 MHz   (72.5 %), step = 370.3 kHz    (278 m%)
    noise: freq = 5.412 MHz   (72.8 %), step = 399.8 kHz    (278 m%)
    noise: freq = 5.843 MHz   (73.1 %), step = 431.7 kHz    (278 m%)
    noise: freq = 6.31 MHz    (73.3 %), step = 466.2 kHz    (278 m%)
    noise: freq = 6.813 MHz   (73.6 %), step = 503.3 kHz    (278 m%)
    noise: freq = 7.356 MHz   (73.9 %), step = 543.5 kHz    (278 m%)
    noise: freq = 7.943 MHz   (74.2 %), step = 586.9 kHz    (278 m%)
    noise: freq = 8.577 MHz   (74.4 %), step = 633.7 kHz    (278 m%)
    noise: freq = 9.261 MHz   (74.7 %), step = 684.2 kHz    (278 m%)
    noise: freq = 10 MHz        (75 %), step = 738.8 kHz    (278 m%)
    noise: freq = 10.8 MHz    (75.3 %), step = 797.8 kHz    (278 m%)
    noise: freq = 11.66 MHz   (75.6 %), step = 861.4 kHz    (278 m%)
    noise: freq = 12.59 MHz   (75.8 %), step = 930.1 kHz    (278 m%)
    noise: freq = 13.59 MHz   (76.1 %), step = 1.004 MHz    (278 m%)
    noise: freq = 14.68 MHz   (76.4 %), step = 1.084 MHz    (278 m%)
    noise: freq = 15.85 MHz   (76.7 %), step = 1.171 MHz    (278 m%)
    noise: freq = 17.11 MHz   (76.9 %), step = 1.264 MHz    (278 m%)
    noise: freq = 18.48 MHz   (77.2 %), step = 1.365 MHz    (278 m%)
    noise: freq = 19.95 MHz   (77.5 %), step = 1.474 MHz    (278 m%)
    noise: freq = 21.54 MHz   (77.8 %), step = 1.592 MHz    (278 m%)
    noise: freq = 23.26 MHz   (78.1 %), step = 1.719 MHz    (278 m%)
    noise: freq = 25.12 MHz   (78.3 %), step = 1.856 MHz    (278 m%)
    noise: freq = 27.12 MHz   (78.6 %), step = 2.004 MHz    (278 m%)
    noise: freq = 29.29 MHz   (78.9 %), step = 2.164 MHz    (278 m%)
    noise: freq = 31.62 MHz   (79.2 %), step = 2.336 MHz    (278 m%)
    noise: freq = 34.15 MHz   (79.4 %), step = 2.523 MHz    (278 m%)
    noise: freq = 36.87 MHz   (79.7 %), step = 2.724 MHz    (278 m%)
    noise: freq = 39.81 MHz     (80 %), step = 2.941 MHz    (278 m%)
    noise: freq = 42.99 MHz   (80.3 %), step = 3.176 MHz    (278 m%)
    noise: freq = 46.42 MHz   (80.6 %), step = 3.429 MHz    (278 m%)
    noise: freq = 50.12 MHz   (80.8 %), step = 3.703 MHz    (278 m%)
    noise: freq = 54.12 MHz   (81.1 %), step = 3.998 MHz    (278 m%)
    noise: freq = 58.43 MHz   (81.4 %), step = 4.317 MHz    (278 m%)
    noise: freq = 63.1 MHz    (81.7 %), step = 4.662 MHz    (278 m%)
    noise: freq = 68.13 MHz   (81.9 %), step = 5.033 MHz    (278 m%)
    noise: freq = 73.56 MHz   (82.2 %), step = 5.435 MHz    (278 m%)
    noise: freq = 79.43 MHz   (82.5 %), step = 5.869 MHz    (278 m%)
    noise: freq = 85.77 MHz   (82.8 %), step = 6.337 MHz    (278 m%)
    noise: freq = 92.61 MHz   (83.1 %), step = 6.842 MHz    (278 m%)
    noise: freq = 100 MHz     (83.3 %), step = 7.388 MHz    (278 m%)
    noise: freq = 108 MHz     (83.6 %), step = 7.978 MHz    (278 m%)
    noise: freq = 116.6 MHz   (83.9 %), step = 8.614 MHz    (278 m%)
    noise: freq = 125.9 MHz   (84.2 %), step = 9.301 MHz    (278 m%)
    noise: freq = 135.9 MHz   (84.4 %), step = 10.04 MHz    (278 m%)
    noise: freq = 146.8 MHz   (84.7 %), step = 10.84 MHz    (278 m%)
    noise: freq = 158.5 MHz     (85 %), step = 11.71 MHz    (278 m%)
    noise: freq = 171.1 MHz   (85.3 %), step = 12.64 MHz    (278 m%)
    noise: freq = 184.8 MHz   (85.6 %), step = 13.65 MHz    (278 m%)
    noise: freq = 199.5 MHz   (85.8 %), step = 14.74 MHz    (278 m%)
    noise: freq = 215.4 MHz   (86.1 %), step = 15.92 MHz    (278 m%)
    noise: freq = 232.6 MHz   (86.4 %), step = 17.19 MHz    (278 m%)
    noise: freq = 251.2 MHz   (86.7 %), step = 18.56 MHz    (278 m%)
    noise: freq = 271.2 MHz   (86.9 %), step = 20.04 MHz    (278 m%)
    noise: freq = 292.9 MHz   (87.2 %), step = 21.64 MHz    (278 m%)
    noise: freq = 316.2 MHz   (87.5 %), step = 23.36 MHz    (278 m%)
    noise: freq = 341.5 MHz   (87.8 %), step = 25.23 MHz    (278 m%)
    noise: freq = 368.7 MHz   (88.1 %), step = 27.24 MHz    (278 m%)
    noise: freq = 398.1 MHz   (88.3 %), step = 29.41 MHz    (278 m%)
    noise: freq = 429.9 MHz   (88.6 %), step = 31.76 MHz    (278 m%)
    noise: freq = 464.2 MHz   (88.9 %), step = 34.29 MHz    (278 m%)
    noise: freq = 501.2 MHz   (89.2 %), step = 37.03 MHz    (278 m%)
    noise: freq = 541.2 MHz   (89.4 %), step = 39.98 MHz    (278 m%)
    noise: freq = 584.3 MHz   (89.7 %), step = 43.17 MHz    (278 m%)
    noise: freq = 631 MHz       (90 %), step = 46.62 MHz    (278 m%)
    noise: freq = 681.3 MHz   (90.3 %), step = 50.33 MHz    (278 m%)
    noise: freq = 735.6 MHz   (90.6 %), step = 54.35 MHz    (278 m%)
    noise: freq = 794.3 MHz   (90.8 %), step = 58.69 MHz    (278 m%)
    noise: freq = 857.7 MHz   (91.1 %), step = 63.37 MHz    (278 m%)
    noise: freq = 926.1 MHz   (91.4 %), step = 68.42 MHz    (278 m%)
    noise: freq = 1 GHz       (91.7 %), step = 73.88 MHz    (278 m%)
    noise: freq = 1.08 GHz    (91.9 %), step = 79.78 MHz    (278 m%)
    noise: freq = 1.166 GHz   (92.2 %), step = 86.14 MHz    (278 m%)
    noise: freq = 1.259 GHz   (92.5 %), step = 93.01 MHz    (278 m%)
    noise: freq = 1.359 GHz   (92.8 %), step = 100.4 MHz    (278 m%)
    noise: freq = 1.468 GHz   (93.1 %), step = 108.4 MHz    (278 m%)
    noise: freq = 1.585 GHz   (93.3 %), step = 117.1 MHz    (278 m%)
    noise: freq = 1.711 GHz   (93.6 %), step = 126.4 MHz    (278 m%)
    noise: freq = 1.848 GHz   (93.9 %), step = 136.5 MHz    (278 m%)
    noise: freq = 1.995 GHz   (94.2 %), step = 147.4 MHz    (278 m%)
    noise: freq = 2.154 GHz   (94.4 %), step = 159.2 MHz    (278 m%)
    noise: freq = 2.326 GHz   (94.7 %), step = 171.9 MHz    (278 m%)
    noise: freq = 2.512 GHz     (95 %), step = 185.6 MHz    (278 m%)
    noise: freq = 2.712 GHz   (95.3 %), step = 200.4 MHz    (278 m%)
    noise: freq = 2.929 GHz   (95.6 %), step = 216.4 MHz    (278 m%)
    noise: freq = 3.162 GHz   (95.8 %), step = 233.6 MHz    (278 m%)
    noise: freq = 3.415 GHz   (96.1 %), step = 252.3 MHz    (278 m%)
    noise: freq = 3.687 GHz   (96.4 %), step = 272.4 MHz    (278 m%)
    noise: freq = 3.981 GHz   (96.7 %), step = 294.1 MHz    (278 m%)
    noise: freq = 4.299 GHz   (96.9 %), step = 317.6 MHz    (278 m%)
    noise: freq = 4.642 GHz   (97.2 %), step = 342.9 MHz    (278 m%)
    noise: freq = 5.012 GHz   (97.5 %), step = 370.3 MHz    (278 m%)
    noise: freq = 5.412 GHz   (97.8 %), step = 399.8 MHz    (278 m%)
    noise: freq = 5.843 GHz   (98.1 %), step = 431.7 MHz    (278 m%)
    noise: freq = 6.31 GHz    (98.3 %), step = 466.2 MHz    (278 m%)
    noise: freq = 6.813 GHz   (98.6 %), step = 503.3 MHz    (278 m%)
    noise: freq = 7.356 GHz   (98.9 %), step = 543.5 MHz    (278 m%)
    noise: freq = 7.943 GHz   (99.2 %), step = 586.9 MHz    (278 m%)
    noise: freq = 8.577 GHz   (99.4 %), step = 633.7 MHz    (278 m%)
    noise: freq = 9.261 GHz   (99.7 %), step = 684.2 MHz    (278 m%)
    noise: freq = 10 GHz       (100 %), step = 738.8 MHz    (278 m%)
Accumulated DC solution time =            45.0611 us.
Intrinsic noise analysis time =              90.8411 ms.
Total time required for noise analysis `noise': CPU = 78.851 ms, elapsed = 91.0561 ms, util. = 86.6%.
Time accumulated: CPU = 791.846 ms, elapsed = 1.32591 s.
Peak resident memory used = 207 Mbytes.


****************
PZ Analysis `pz'
****************

Warning from spectre during PZ analysis `pz'.
    WARNING: BSIM3v3 MOS Transistor - frequency dependent components are present in the circuit, approximated as AC equivalents at 1.000000e+00Hz for pz analysis.


Opening the PSF file ../psf/pz.pz ...

Warning from spectre at 0 during check, during DC analysis, during PZ analysis `pz'.
    WARNING (CMI-2943): Parameter checks have been ignored because the valid value for parameter 'trise' could not be found in 'C0'.
    WARNING (CMI-2943): Parameter checks have been ignored because the valid value for parameter 'trise' could not be found in 'C1'.
    WARNING (CMI-2943): Parameter checks have been ignored because the valid value for parameter 'trise' could not be found in 'I0.C3.C1'.
    WARNING (CMI-2943): Parameter checks have been ignored because the valid value for parameter 'trise' could not be found in 'I0.C7<0>_turbo_m2.C1'.
    WARNING (CMI-2943): Parameter checks have been ignored because the valid value for parameter 'trise' could not be found in 'I0.C8<0>_turbo_m4.C1'.
        Further occurrences of this warning will be suppressed.

Convergence achieved in 2 iterations.
DC simulation time: CPU = 962 us, elapsed = 961.065 us.
                      Poles (Hz)

           Real                       Imaginary                 Qfactor

   1   -2.97482e-01                  0.00000e+00              5.00000e-01 
   2   -1.58907e+03                  0.00000e+00              5.00000e-01 
   3   -9.20033e+04                  0.00000e+00              5.00000e-01 
   4   -1.80430e+05                  0.00000e+00              5.00000e-01 
   5   -9.34690e+05                  0.00000e+00              5.00000e-01 
   6   -1.97817e+06              +/- 6.50057e+05              5.26305e-01 
   7   -7.82551e+06                  0.00000e+00              5.00000e-01 
   8   -1.76145e+07                  0.00000e+00              5.00000e-01 
   9   -5.29804e+07                  0.00000e+00              5.00000e-01 
  10   -1.12558e+08                  0.00000e+00              5.00000e-01 
  11   -2.30701e+08                  0.00000e+00              5.00000e-01 
  12   -5.50883e+08                  0.00000e+00              5.00000e-01 
  13   -1.06835e+10                  0.00000e+00              5.00000e-01 
  14   -1.49012e+11                  0.00000e+00              5.00000e-01 
  15   -6.75483e+11                  0.00000e+00              5.00000e-01 

                      Zeros (Hz)
                      at V(vout,0)/V6

           Real                       Imaginary                 Qfactor

   1   -1.85681e-02                  0.00000e+00              5.00000e-01 
   2   -1.80391e+05                  0.00000e+00              5.00000e-01 
   3   -1.72264e+06              +/- 8.01923e+05              5.51523e-01 
   4   -7.82637e+06                  0.00000e+00              5.00000e-01 
   5    5.57070e+06              +/- 7.36472e+06              -8.28825e-01
   6   -3.33651e+07              +/- 6.73034e+06              5.10071e-01 
   7   -7.64620e+07                  0.00000e+00              5.00000e-01 
   8   -1.52829e+08                  0.00000e+00              5.00000e-01 
   9   -3.02951e+08                  0.00000e+00              5.00000e-01 
  10   -1.06812e+10                  0.00000e+00              5.00000e-01 
  11   -1.48993e+11                  0.00000e+00              5.00000e-01 
  12   -6.67712e+11                  0.00000e+00              5.00000e-01 

Constant factor =  6.38329e+02

DC gain =  1.00025e+00


Warning from spectre at 0 during PZ analysis `pz'.
    WARNING (UWI-8101): The specified waveform format 'psf' (improper context for requested action) could not be added. The simulator will ignore the waveform. Check the application programming interface (API) before running the simulation again.
    WARNING (UWI-8101): The specified waveform format 'psf' (improper context for requested action) could not be added. The simulator will ignore the waveform. Check the application programming interface (API) before running the simulation again.
    WARNING (UWI-8101): The specified waveform format 'psf' (improper context for requested action) could not be added. The simulator will ignore the waveform. Check the application programming interface (API) before running the simulation again.
    WARNING (UWI-8101): The specified waveform format 'psf' (improper context for requested action) could not be added. The simulator will ignore the waveform. Check the application programming interface (API) before running the simulation again.
    WARNING (UWI-8101): The specified waveform format 'psf' (improper context for requested action) could not be added. The simulator will ignore the waveform. Check the application programming interface (API) before running the simulation again.
        Further occurrences of this warning will be suppressed.

Accumulated DC solution time =            1.00303 ms.
Intrinsic pz analysis time =              18.7001 ms.
Total time required for pz analysis `pz': CPU = 18.598 ms, elapsed = 20.0331 ms, util. = 92.8%.
Time accumulated: CPU = 810.981 ms, elapsed = 1.34698 s.
Peak resident memory used = 210 Mbytes.


Notice from spectre.
    40 warnings suppressed.

modelParameter: writing model parameter values to rawfile.

Opening the PSF file ../psf/modelParameter.info ...
element: writing instance parameter values to rawfile.

Opening the PSF file ../psf/element.info ...
outputParameter: writing output parameter values to rawfile.

Opening the PSF file ../psf/outputParameter.info ...
designParamVals: writing netlist parameters to rawfile.

Opening the PSFASCII file ../psf/designParamVals.info ...
primitives: writing primitives to rawfile.

Opening the PSFASCII file ../psf/primitives.info.primitives ...
subckts: writing subcircuits to rawfile.

Opening the PSFASCII file ../psf/subckts.info.subckts ...
Licensing Information:
Lic Summary:
[13:15:34.120008] Cdslmd servers:3000@lic08.ug.kth.se:29000@lic06.ug.kth.se
[13:15:34.644336] Feature usage summary:
[13:15:34.644337] Virtuoso_Multi_mode_Simulation


Aggregate audit (1:15:34 PM, Thur Mar 19, 2026):
Time used: CPU = 837 ms, elapsed = 1.38 s, util. = 60.6%.
Time spent in licensing: elapsed = 48.5 ms.
Peak memory used = 213 Mbytes.
Simulation started at: 1:15:33 PM, Thur Mar 19, 2026, ended at: 1:15:34 PM, Thur Mar 19, 2026, with elapsed time (wall clock): 1.38 s.
spectre completes with 0 errors, 43 warnings, and 17 notices.


********* LOG ENDS **************
**                             **
