
Spectre (R) Circuit Simulator
Version 24.1.0.288.isr5 64bit -- 3 Apr 2025
Copyright (C) 1989-2025 Cadence Design Systems, Inc. All rights reserved worldwide. Cadence and Spectre are registered trademarks of Cadence Design Systems, Inc. All others are the property of their respective holders.

Includes RSA BSAFE(R) Cryptographic or Security Protocol Software from RSA Security, Inc.

User: davidevi   Host: il2244vt26_davidevi   HostID: 11AC2C00   PID: 1056397
Memory  available: 3.0360 TB  physical: 3.2467 TB
Linux   : Rocky Linux release 8.10 (Green Obsidian)
CPU Type: Intel(R) Xeon(R) CPU E7-8857 v2 @ 3.00GHz
        Socket: Processors [Frequency]
        0:       0 [1200.0],  1 [2999.9],  2 [1500.0],  3 [2999.9],  4 [2999.5]
                 5 [1200.0],  6 [1200.0],  7 [2999.9],  8 [2999.9],  9 [3000.0]
                10 [1200.0], 11 [1400.0]
        1:      12 [3600.0], 13 [1200.0], 14 [1200.0], 15 [1200.0], 16 [1200.0]
                17 [1200.0], 18 [1200.0], 19 [1200.0], 20 [1200.0], 21 [2999.9]
                22 [2999.9], 23 [2800.0]
        2:      24 [1200.0], 25 [2700.0], 26 [1200.0], 27 [1200.0], 28 [1200.0]
                29 [3600.0], 30 [1200.0], 31 [3600.0], 32 [1200.0], 33 [3424.8]
                34 [1200.0], 35 [3424.8]
        3:      36 [1200.0], 37 [2999.9], 38 [2999.9], 39 [2999.9], 40 [1200.0]
                41 [1200.0], 42 [1200.0], 43 [2999.9], 44 [1200.0], 45 [2999.9]
                46 [2999.9], 47 [2999.9]
        
System load averages (1min, 5min, 15min) : 26.7 %, 24.2 %, 19.6 %
HPC is enabled


Simulating `input.scs' on il2244vt26_davidevi at 9:12:27 AM, Thur Apr 16, 2026 (process id: 1056397).
Current working directory: /home/davidevi/Desktop/myproject/Sim/VGA/VGA_1_tb/adexl/results/data/MonteCarlo.3/27/Linerity_MC/groupRunDataDir/netlist
Command line:
    /opt/tools/cadence/installs/SPECTRE241/tools/bin/spectre -64  \
        input.scs +escchars +log ../psf/spectre.out -format psfbin  \
        +rtsf -raw ../psf +aps +mt +lqtimeout 900 -maxw 5 -maxn 5  \
        +param /opt/pdk/ams/410/spectre/ams_range.lmts -env ade  \
        -ahdllibdir  \
        /home/davidevi/Desktop/myproject/Sim/VGA/VGA_1_tb/adexl/results/data/MonteCarlo.3/sharedData/Job473/ahdl/input.ahdlSimDB  \
        +logstatus  \
        +adespetkn=0001089D13A302B663E41FB550AF0DF415A679A322D5069144BF588C12F604E07EF416DC01A319B562BB63D361AA27E345A303CD1E91028A01D459D57BF64F9242CB79D15D9175FF34986BDD0AF002BA50FD7FD707E002A700AC1C8618F746EA0EAB79D128F874D3349879D118F874D334981031BF02D3295D7800003652

Simulation Id: S0p0OP5LvYXOVWvS
Licensing Information:
[09:12:27.121770] Configured Lic search path (24.01-s002): 3000@lic08.ug.kth.se:29000@lic06.ug.kth.se

Licensing Information:
[09:12:27.358754] Periodic Lic check successful

Loading /opt/tools/cadence/installs/SPECTRE241/tools.lnx86/cmi/lib/64bit/5.0/libinfineon_sh.so ...
Loading /opt/tools/cadence/installs/SPECTRE241/tools.lnx86/cmi/lib/64bit/5.0/libphilips_I_sh.so ...
Loading /opt/tools/cadence/installs/SPECTRE241/tools.lnx86/cmi/lib/64bit/5.0/libphilips_sh.so ...
Loading /opt/tools/cadence/installs/SPECTRE241/tools.lnx86/cmi/lib/64bit/5.0/libsparam_sh.so ...
Loading /opt/tools/cadence/installs/SPECTRE241/tools.lnx86/cmi/lib/64bit/5.0/libstmodels_sh.so ...

Warning from spectre.
    WARNING (SPECTRE-691): This CPU processor does not support x86 advanced vector extensions instructions. This may affect math operations and slow down the simulation.

Reading file:  /home/davidevi/Desktop/myproject/Sim/VGA/VGA_1_tb/adexl/results/data/MonteCarlo.3/27/Linerity_MC/groupRunDataDir/netlist/input.scs
Reading file:  /opt/pdk/ams/410/spectre/ams_range.lmts

Warning from spectre during read of parameter soft limits file `/opt/pdk/ams/410/spectre/ams_range.lmts', during circuit read-in.
    WARNING (SPECTRE-8360): line 1511: `ac' is an undefined primitive device.
    WARNING (SPECTRE-8360): line 1512: `ac' is an undefined primitive device.
    WARNING (SPECTRE-8360): line 1513: `ac' is an undefined primitive device.
    WARNING (SPECTRE-8360): line 1514: `ac' is an undefined primitive device.
    WARNING (SPECTRE-8360): line 1515: `ac' is an undefined primitive device.
        Further occurrences of this warning will be suppressed.

Reading file:  /opt/tools/cadence/installs/SPECTRE241/tools.lnx86/spectre/etc/configs/spectre.cfg
Reading file:  /opt/pdk/ams/410/spectre/c35/soac/soac.scs
Reading file:  /opt/pdk/ams/410/spectre/c35/soac/processOption.scs
Reading file:  /opt/pdk/ams/410/spectre/c35/soac/process.scs
Reading file:  /opt/pdk/ams/410/spectre/c35/soac/soac.va

Warning from spectre during AHDL read-in.
    WARNING (VACOMP-2435): The environment variable CDS_AHDLCMI_ENABLE is no longer supported. Therefore, the simulator will use the default compiled C code flow.

Reading link:  /opt/tools/cadence/installs/SPECTRE241/tools.lnx86/spectre/etc/ahdl/constants.h
Reading file:  /opt/tools/cadence/installs/SPECTRE241/tools.lnx86/spectre/etc/ahdl/constants.vams
Reading link:  /opt/tools/cadence/installs/SPECTRE241/tools.lnx86/spectre/etc/ahdl/discipline.h
Reading file:  /opt/tools/cadence/installs/SPECTRE241/tools.lnx86/spectre/etc/ahdl/disciplines.vams
Reading file:  /opt/pdk/ams/410/spectre/c35/processOption/C35B4C3.scs
Reading file:  /opt/pdk/ams/410/spectre/c35/soac/cmos53.scs
Reading file:  /opt/pdk/ams/410/spectre/c35/soac/res.scs
Reading file:  /opt/pdk/ams/410/spectre/c35/soac/cap.scs
Reading file:  /opt/pdk/ams/410/spectre/c35/soac/bip.scs
Reading file:  /opt/pdk/ams/410/spectre/c35/soac/ind.scs
Reading file:  /opt/pdk/ams/410/spectre/c35/soac/esddiode.scs
Time for NDB Parsing: CPU = 175.963 ms, elapsed = 347.736 ms.
Time accumulated: CPU = 367.011 ms, elapsed = 347.738 ms.
Peak resident memory used = 175 Mbytes.

Existing shared object for module modn_ahdl is up to date.
Installed compiled interface for modn_ahdl.
Existing shared object for module modp_ahdl is up to date.
Installed compiled interface for modp_ahdl.
Existing shared object for module cpoly_ahdl is up to date.
Installed compiled interface for cpoly_ahdl.
Existing shared object for module rpolyh_ahdl is up to date.
Installed compiled interface for rpolyh_ahdl.
Existing shared object for module bsource_19b458 is up to date.
Installed compiled interface for bsource_19b458.
Time for Elaboration: CPU = 60.941 ms, elapsed = 62.7558 ms.
Time accumulated: CPU = 428.085 ms, elapsed = 410.626 ms.
Peak resident memory used = 188 Mbytes.


Notice from spectre during hierarchy flattening.
    The value 'psf' specified for the 'checklimitdest' option will no longer be supported in future releases. Use 'spectre -h' to see other recommended values for the 'checklimitdest' option.


*****************************************************************************************
* 
* INFO: AMS_processOption = C35B4C3
* 
* INFO: Valid Modules  PIP VG5 HIRES
* 
*****************************************************************************************


Time for EDB Visiting: CPU = 9.293 ms, elapsed = 9.29403 ms.
Time accumulated: CPU = 437.517 ms, elapsed = 420.058 ms.
Peak resident memory used = 191 Mbytes.

Loading /opt/tools/cadence/installs/SPECTRE241/tools.lnx86/mdl/lib/64bit/libSpectreEH_sh.so ...

Warning from spectre during initial setup.
    WARNING (SPECTRE-16460): SOAC_cvarm_vspsub:Specified subcircuit master `cvarm' was not found.
    WARNING (SPECTRE-16462): SOAC_cvarm_vspsub:Error in specification of subcircuit master. Assert is ignored.
    WARNING (SPECTRE-16460): SOAC_cvarm_vbs:Specified subcircuit master `cvarm' was not found.
    WARNING (SPECTRE-16462): SOAC_cvarm_vbs:Error in specification of subcircuit master. Assert is ignored.
    WARNING (SPECTRE-16460): SOAC_cvarm_vgb:Specified subcircuit master `cvarm' was not found.
    WARNING (SPECTRE-16462): SOAC_cvarm_vgb:Error in specification of subcircuit master. Assert is ignored.
    WARNING (SPECTRE-16460): SOAC_cvart_vspsub:Specified subcircuit master `cvart' was not found.
    WARNING (SPECTRE-16462): SOAC_cvart_vspsub:Error in specification of subcircuit master. Assert is ignored.
    WARNING (SPECTRE-16460): SOAC_cvart_vbs:Specified subcircuit master `cvart' was not found.
        Further occurrences of this warning will be suppressed.
    WARNING (SPECTRE-16462): SOAC_cvart_vbs:Error in specification of subcircuit master. Assert is ignored.
        Further occurrences of this warning will be suppressed.
Notice from spectre during topology check.
    Only one connection to the following 54 nodes:
        I0.MN6.psub!
        I0.MN5.psub!
        I0.MN4.psub!
        I0.MN3.psub!
        I0.MN2.psub!
        Further occurrences of this notice will be suppressed.
Notice from spectre during initial setup.
    Multithreading is disabled due to the size of the design being too small.


Netlist title:
        // Point Netlist Generated on: Apr 16 09:12:27 2026


Global user options:
         psfversion = 1.4.0
            vabstol = 1e-06
            iabstol = 1e-12
               temp = 85
           homotopy = 5
              limit = delta
         compatible = spice2
               gmin = 1e-12
             rforce = 1
           maxnotes = 5
           maxwarns = 5
             digits = 5
               cols = 80
             pivrel = 0.001
           sensfile = ../psf/sens.output
     checklimitdest = psf
     enable_pre_ver = yes
      ignorezerovar = yes
               save = allpub
             reltol = 0.0001
               tnom = 27
             scalem = 1
              scale = 1

Scoped user options:

Circuit inventory:
              nodes 88
            bsim3v3 35    
     bsource_19b458 2     
          capacitor 38    
         cpoly_ahdl 17    
            isource 1     
          modn_ahdl 19    
          modp_ahdl 16    
           resistor 1     
        rpolyh_ahdl 2     
            vsource 8     

Analysis and control statement inventory:
                 dc 1     
               info 8     
         montecarlo 1     
               tran 1     

Output statements:
             .probe 0     
           .measure 0     
               save 0     

Design checks inventory:
          paramtest 55    
             assert 175   


Notice from spectre during initial setup.
    APS enabled.
    1 notice suppressed.
    72 warnings suppressed.

Time for parsing: CPU = 19.013 ms, elapsed = 671.434 ms.
Time accumulated: CPU = 456.636 ms, elapsed = 1.0916 s.
Peak resident memory used = 198 Mbytes.

~~~~~~~~~~~~~~~~~~~~~~
Pre-Simulation Summary
~~~~~~~~~~~~~~~~~~~~~~
   -   (APS) Multi-threading. The recommended number of threads is 1, consider adding +mt=1 on command line.
~~~~~~~~~~~~~~~~~~~~~~

*************************************************
Monte Carlo Analysis `mc1': iteration = (1 -> 50)
*************************************************
Important parameter values:
    seed = 12345
    sampling = lds
    variations = all
    firstrun = 1
    numruns = 50
    nullmfactorcorrelation = no
    donominal = yes
    method = standard

**** Performing nominal run for `mc1'

******************
DC Analysis `dcOp'
******************

Notice from spectre during DC analysis `dcOp', during Monte Carlo analysis `mc1'.
    No checklimit analysis defined for asserts. A default checklimit analysis 'SpectreChecklimitAnal' has been created with all asserts enabled.


Opening the PSF file ../psf/nom/dcOp.dc ...
Important parameter values:
    reltol = 100e-06
    abstol(V) = 1 uV
    abstol(I) = 1 pA
    temp = 85 C
    tnom = 27 C
    tempeffects = all
    gmindc = 1 pS
    rabsshort = 1 mOhm

Notice from spectre during DC analysis `dcOp', during Monte Carlo analysis `mc1'.
    Bad pivoting is found during DC analysis. Option dc_pivot_check=yes is recommended for possible improvement of convergence.


Maximum value achieved for any signal of each quantity: 
V: V(S<0>) = 3.3 V
I: I(V0:p) = 6.442 uA
Maximum value of each quantity, excluding Verilog-A modules or dangling current sources:
V: V(net1) = 1.6 V
I: I(V0:p) = 6.442 uA

Warning from spectre during check, during DC analysis `dcOp', during Monte Carlo analysis `mc1'.
    WARNING (CMI-2943): Parameter checks have been ignored because the valid value for parameter 'trise' could not be found in 'C1'.
    WARNING (CMI-2943): Parameter checks have been ignored because the valid value for parameter 'trise' could not be found in 'I0.R2.CM'.
    WARNING (CMI-2943): Parameter checks have been ignored because the valid value for parameter 'trise' could not be found in 'I0.R2.CS1'.
    WARNING (CMI-2943): Parameter checks have been ignored because the valid value for parameter 'trise' could not be found in 'I0.R2.CS0'.
    WARNING (CMI-2943): Parameter checks have been ignored because the valid value for parameter 'trise' could not be found in 'I0.C8<3>.C1'.
        Further occurrences of this warning will be suppressed.

Convergence achieved in 21 iterations.
DC simulation time: CPU = 89.446 ms, elapsed = 93.7281 ms.
Total time required for dc analysis `dcOp': CPU = 89.584 ms, elapsed = 93.863 ms, util. = 95.4%.
Time accumulated: CPU = 571.303 ms, elapsed = 1.21145 s.
Peak resident memory used = 207 Mbytes.


Notice from spectre during Monte Carlo analysis `mc1'.
    34 warnings suppressed.

dcOpInfo: writing operating point information to rawfile.

Opening the PSF file ../psf/nom/dcOpInfo.info ...

************************************************
Transient Analysis `tran': time = (0 s -> 40 ms)
************************************************

Notice from spectre during IC analysis, during transient analysis `tran', during Monte Carlo analysis `mc1'.
    Bad pivoting is found during DC analysis. Option dc_pivot_check=yes is recommended for possible improvement of convergence.
Warning from spectre during check, during IC analysis, during transient analysis `tran', during Monte Carlo analysis `mc1'.
    WARNING (CMI-2943): Parameter checks have been ignored because the valid value for parameter 'trise' could not be found in 'C1'.
    WARNING (CMI-2943): Parameter checks have been ignored because the valid value for parameter 'trise' could not be found in 'I0.R2.CM'.
    WARNING (CMI-2943): Parameter checks have been ignored because the valid value for parameter 'trise' could not be found in 'I0.R2.CS1'.
    WARNING (CMI-2943): Parameter checks have been ignored because the valid value for parameter 'trise' could not be found in 'I0.R2.CS0'.
    WARNING (CMI-2943): Parameter checks have been ignored because the valid value for parameter 'trise' could not be found in 'I0.C8<3>.C1'.
        Further occurrences of this warning will be suppressed.

Convergence achieved in 2 iterations.
DC simulation time: CPU = 1.174 ms, elapsed = 1.17493 ms.

Opening the PSF file ../psf/nom/tran.tran.tran ...
Important parameter values:
    start = 0 s
    outputstart = 0 s
    stop = 40 ms
    step = 40 us
    maxstep = 400 us
    ic = all
    useprevic = no
    skipdc = no
    reltol = 10e-06
    abstol(V) = 1 uV
    abstol(I) = 1 pA
    temp = 85 C
    tnom = 27 C
    tempeffects = all
    errpreset = conservative
    method = gear2only
    lteratio = 10
    relref = alllocal
    cmin = 0 F
    gmin = 1 pS
    rabsshort = 1 mOhm


Notice from spectre during transient analysis `tran', during Monte Carlo analysis `mc1'.
    Multithreading is disabled due to the size of the design being too small.


Output and IC/nodeset summary:
                 save   8       (current)
                 save   87      (voltage)

    tran: time = 1.016 ms    (2.54 %), step = 48.94 us     (122 m%)
    tran: time = 3.029 ms    (7.57 %), step = 47.81 us     (120 m%)
    tran: time = 5.043 ms    (12.6 %), step = 46.93 us     (117 m%)
    tran: time = 7.009 ms    (17.5 %), step = 49.55 us     (124 m%)
    tran: time = 9.023 ms    (22.6 %), step = 48.33 us     (121 m%)
    tran: time = 11.04 ms    (27.6 %), step = 47.33 us     (118 m%)
    tran: time = 13 ms       (32.5 %), step = 50 us        (125 m%)
    tran: time = 15.02 ms    (37.5 %), step = 48.9 us      (122 m%)
    tran: time = 17.03 ms    (42.6 %), step = 47.78 us     (119 m%)
    tran: time = 19.04 ms    (47.6 %), step = 46.9 us      (117 m%)
    tran: time = 21.01 ms    (52.5 %), step = 49.51 us     (124 m%)
    tran: time = 23.02 ms    (57.6 %), step = 48.3 us      (121 m%)
    tran: time = 25.04 ms    (62.6 %), step = 47.3 us      (118 m%)
    tran: time = 27 ms       (67.5 %), step = 50 us        (125 m%)
    tran: time = 29.02 ms    (72.5 %), step = 48.86 us     (122 m%)
    tran: time = 31.03 ms    (77.6 %), step = 47.75 us     (119 m%)
    tran: time = 33.04 ms    (82.6 %), step = 46.88 us     (117 m%)
    tran: time = 35.01 ms    (87.5 %), step = 49.47 us     (124 m%)
    tran: time = 37.02 ms    (92.6 %), step = 48.27 us     (121 m%)
    tran: time = 39.04 ms    (97.6 %), step = 47.28 us     (118 m%)
Number of accepted tran steps =             852

Maximum value achieved for any signal of each quantity: 
V: V(S<0>) = 3.3 V
I: I(V0:p) = 6.443 uA
Maximum value of each quantity, excluding Verilog-A modules or dangling current sources:
V: V(vout_filt) = 1.614 V
I: I(V0:p) = 6.443 uA

~~~~~~~~~~~~~~~~~~~~~~~~~~~~~~~~~
Post-Transient Simulation Summary
~~~~~~~~~~~~~~~~~~~~~~~~~~~~~~~~~
   -   To further speed up simulation, consider
          add ++aps on command line
   -   Non-default settings that could significantly slow down simulation
          errpreset = conservative, default moderate
          reltol = 10e-06, default 100e-06 (conservative)
~~~~~~~~~~~~~~~~~~~~~~~~~~~~~~~~~


During simulation, the CPU load for active processors is :
         0 (3.1 %)       1 (100.0 %)     2 (21.4 %)      3 (4.2 %)
         4 (6.6 %)       5 (9.0 %)       6 (3.0 %)       7 (7.9 %)
         8 (100.0 %)     9 (3.0 %)      10 (10.2 %)     11 (15.7 %)
        12 (41.2 %)     13 (4.2 %)      14 (12.1 %)     15 (32.1 %)
        16 (59.4 %)     17 (3.0 %)      18 (36.1 %)     19 (5.4 %)
        20 (6.1 %)      21 (100.0 %)    22 (29.9 %)     23 (68.6 %)
        24 (4.3 %)      25 (4.2 %)      26 (4.2 %)      27 (5.4 %)
        28 (2.4 %)      29 (3.0 %)      30 (1.8 %)      31 (3.0 %)
        32 (7.9 %)      33 (96.4 %)     34 (2.4 %)      35 (87.4 %)
        36 (4.2 %)      37 (30.7 %)     38 (85.7 %)     39 (7.8 %)
        40 (3.6 %)      41 (73.2 %)     42 (4.2 %)      43 (6.7 %)
        44 (3.6 %)      45 (100.0 %)    46 (1.8 %)      47 (1.2 %)
        Total: 1227.9%
Initial condition solution time: CPU = 1.21 ms, elapsed = 1.21188 ms.
Intrinsic tran analysis time:    CPU = 518.209 ms, elapsed = 519.894 ms.
Total time required for tran analysis `tran': CPU = 521.79 ms, elapsed = 524.096 ms, util. = 99.6%.
Time accumulated: CPU = 1.10268 s, elapsed = 1.7477 s.
Peak resident memory used = 210 Mbytes.


Notice from spectre during transient analysis `tran', during Monte Carlo analysis `mc1'.
    34 warnings suppressed.

finalTimeOP: writing operating point information to rawfile.

Opening the PSF file ../psf/nom/finalTimeOP.info ...
modelParameter: writing model parameter values to rawfile.

Opening the PSF file ../psf/nom/modelParameter.info ...
element: writing instance parameter values to rawfile.

Opening the PSF file ../psf/nom/element.info ...
outputParameter: writing output parameter values to rawfile.

Opening the PSF file ../psf/nom/outputParameter.info ...
designParamVals: writing netlist parameters to rawfile.

Opening the PSFASCII file ../psf/nom/designParamVals.info ...
primitives: writing primitives to rawfile.

Opening the PSFASCII file ../psf/nom/primitives.info.primitives ...
subckts: writing subcircuits to rawfile.

Opening the PSFASCII file ../psf/nom/subckts.info.subckts ...
Opening iteration number and data-directory mapping file:  /home/davidevi/Desktop/myproject/Sim/VGA/VGA_1_tb/adexl/results/data/MonteCarlo.3/27/Linerity_MC/groupRunDataDir/netlist/../psf/mc1.mapping

Statistical parameters:
    Defined process parameters: 629
    Defined mismatch parameters (subckt based): 86
    Non-referenced mismatch parameters: 80
    Number of random variables: 718
    Gaussian truncation for process parameters: 4.00 sigma
    Gaussian truncation for mismatch parameters: 4.00 sigma


Opening the PSF file ../psf/mc1_dcOp.montecarlo ...

Opening the PSF file ../psf/mc1_dcOpInfo.montecarlo ...

Opening the PSF file ../psf/mc1_tran.montecarlo ...

Opening the PSF file ../psf/mc1_finalTimeOP.montecarlo ...

Opening the PSF file ../psf/mc1_modelParameter.montecarlo ...

Opening the PSF file ../psf/mc1_element.montecarlo ...

Opening the PSF file ../psf/mc1_outputParameter.montecarlo ...

Opening the PSF file ../psf/mc1_designParamVals.montecarlo ...

Opening the PSF file ../psf/mc1_primitives.montecarlo ...

Opening the PSF file ../psf/mc1_subckts.montecarlo ...

**** Performing monte carlo loop for `mc1'

1   0.00% 

*****************************************************************************************
* 
* INFO: AMS_processOption = C35B4C3
* 
* INFO: Valid Modules  PIP VG5 HIRES
* 
*****************************************************************************************


******************
DC Analysis `dcOp'
******************

Opening the PSF file ../psf/mc1_separate/001/dcOp.dc ...
Important parameter values:
    reltol = 100e-06
    abstol(V) = 1 uV
    abstol(I) = 1 pA
    temp = 85 C
    tnom = 27 C
    tempeffects = all
    gmindc = 1 pS
    rabsshort = 1 mOhm

Notice from spectre at iteration = 1 during DC analysis `dcOp', during Monte Carlo analysis `mc1'.
    Bad pivoting is found during DC analysis. Option dc_pivot_check=yes is recommended for possible improvement of convergence.


Maximum value achieved for any signal of each quantity: 
V: V(S<0>) = 3.3 V
I: I(V0:p) = 6.252 uA
Maximum value of each quantity, excluding Verilog-A modules or dangling current sources:
V: V(vout_filt) = 1.6 V
I: I(V0:p) = 6.252 uA

Warning from spectre at iteration = 1 during check, during DC analysis `dcOp', during Monte Carlo analysis `mc1'.
    WARNING (CMI-2943): Parameter checks have been ignored because the valid value for parameter 'trise' could not be found in 'C1'.
    WARNING (CMI-2943): Parameter checks have been ignored because the valid value for parameter 'trise' could not be found in 'I0.R2.CM'.
    WARNING (CMI-2943): Parameter checks have been ignored because the valid value for parameter 'trise' could not be found in 'I0.R2.CS1'.
    WARNING (CMI-2943): Parameter checks have been ignored because the valid value for parameter 'trise' could not be found in 'I0.R2.CS0'.
    WARNING (CMI-2943): Parameter checks have been ignored because the valid value for parameter 'trise' could not be found in 'I0.C8<3>.C1'.
        Further occurrences of this warning will be suppressed.

Convergence achieved in 22 iterations.
DC simulation time: CPU = 6.366 ms, elapsed = 7.44009 ms.
Total time required for dc analysis `dcOp': CPU = 6.958 ms, elapsed = 8.03185 ms, util. = 86.6%.
Time accumulated: CPU = 1.19508 s, elapsed = 1.85592 s.
Peak resident memory used = 212 Mbytes.


Notice from spectre at iteration = 1 during Monte Carlo analysis `mc1'.
    34 warnings suppressed.

dcOpInfo: writing operating point information to rawfile.

Opening the PSF file ../psf/mc1_separate/001/dcOpInfo.info ...

************************************************
Transient Analysis `tran': time = (0 s -> 40 ms)
************************************************

Opening the PSF file ../psf/mc1_separate/001/tran.tran.tran ...

Notice from spectre at iteration = 1 during IC analysis, during transient analysis `tran', during Monte Carlo analysis `mc1'.
    Bad pivoting is found during DC analysis. Option dc_pivot_check=yes is recommended for possible improvement of convergence.
Warning from spectre at iteration = 1 during check, during IC analysis, during transient analysis `tran', during Monte Carlo analysis `mc1'.
    WARNING (CMI-2943): Parameter checks have been ignored because the valid value for parameter 'trise' could not be found in 'C1'.
    WARNING (CMI-2943): Parameter checks have been ignored because the valid value for parameter 'trise' could not be found in 'I0.R2.CM'.
    WARNING (CMI-2943): Parameter checks have been ignored because the valid value for parameter 'trise' could not be found in 'I0.R2.CS1'.
    WARNING (CMI-2943): Parameter checks have been ignored because the valid value for parameter 'trise' could not be found in 'I0.R2.CS0'.
    WARNING (CMI-2943): Parameter checks have been ignored because the valid value for parameter 'trise' could not be found in 'I0.C8<3>.C1'.
        Further occurrences of this warning will be suppressed.

Convergence achieved in 22 iterations.
DC simulation time: CPU = 3.284 ms, elapsed = 3.28493 ms.
Important parameter values:
    start = 0 s
    outputstart = 0 s
    stop = 40 ms
    step = 40 us
    maxstep = 400 us
    ic = all
    useprevic = no
    skipdc = no
    reltol = 10e-06
    abstol(V) = 1 uV
    abstol(I) = 1 pA
    temp = 85 C
    tnom = 27 C
    tempeffects = all
    errpreset = conservative
    method = gear2only
    lteratio = 10
    relref = alllocal
    cmin = 0 F
    gmin = 1 pS
    rabsshort = 1 mOhm


Notice from spectre at iteration = 1 during transient analysis `tran', during Monte Carlo analysis `mc1'.
    Multithreading is disabled due to the size of the design being too small.


Output and IC/nodeset summary:
                 save   8       (current)
                 save   87      (voltage)

    tran: time = 1.015 ms    (2.54 %), step = 49.02 us     (123 m%)
    tran: time = 3.028 ms    (7.57 %), step = 47.88 us     (120 m%)
    tran: time = 5.042 ms    (12.6 %), step = 46.98 us     (117 m%)
    tran: time = 7.009 ms    (17.5 %), step = 49.64 us     (124 m%)
    tran: time = 9.022 ms    (22.6 %), step = 48.4 us      (121 m%)
    tran: time = 11.04 ms    (27.6 %), step = 47.38 us     (118 m%)
    tran: time = 13 ms       (32.5 %), step = 50 us        (125 m%)
    tran: time = 15.02 ms    (37.5 %), step = 48.97 us     (122 m%)
    tran: time = 17.03 ms    (42.6 %), step = 47.83 us     (120 m%)
    tran: time = 19.04 ms    (47.6 %), step = 46.94 us     (117 m%)
    tran: time = 21.01 ms    (52.5 %), step = 49.58 us     (124 m%)
    tran: time = 23.02 ms    (57.6 %), step = 48.35 us     (121 m%)
    tran: time = 25.04 ms    (62.6 %), step = 47.34 us     (118 m%)
    tran: time = 27 ms       (67.5 %), step = 50 us        (125 m%)
    tran: time = 29.02 ms    (72.5 %), step = 48.91 us     (122 m%)
    tran: time = 31.03 ms    (77.6 %), step = 47.79 us     (119 m%)
    tran: time = 33.04 ms    (82.6 %), step = 46.9 us      (117 m%)
    tran: time = 35.01 ms    (87.5 %), step = 49.52 us     (124 m%)
    tran: time = 37.02 ms    (92.6 %), step = 48.3 us      (121 m%)
    tran: time = 39.04 ms    (97.6 %), step = 47.3 us      (118 m%)
Number of accepted tran steps =             852

Maximum value achieved for any signal of each quantity: 
V: V(S<0>) = 3.3 V
I: I(V0:p) = 6.252 uA
Maximum value of each quantity, excluding Verilog-A modules or dangling current sources:
V: V(vout_filt) = 1.614 V
I: I(V0:p) = 6.252 uA

~~~~~~~~~~~~~~~~~~~~~~~~~~~~~~~~~
Post-Transient Simulation Summary
~~~~~~~~~~~~~~~~~~~~~~~~~~~~~~~~~
   -   To further speed up simulation, consider
          add ++aps on command line
   -   Non-default settings that could significantly slow down simulation
          errpreset = conservative, default moderate
          reltol = 10e-06, default 100e-06 (conservative)
~~~~~~~~~~~~~~~~~~~~~~~~~~~~~~~~~


During simulation, the CPU load for active processors is :
         0 (2.7 %)       1 (100.0 %)     2 (20.9 %)      3 (3.5 %)
         4 (5.7 %)       5 (7.0 %)       6 (2.2 %)       7 (6.6 %)
         8 (100.0 %)     9 (2.2 %)      10 (13.1 %)     11 (11.8 %)
        12 (33.3 %)     13 (3.9 %)      14 (9.2 %)      15 (49.3 %)
        16 (44.0 %)     17 (2.6 %)      18 (32.2 %)     19 (28.8 %)
        20 (5.3 %)      21 (100.0 %)    22 (22.6 %)     23 (77.2 %)
        24 (5.8 %)      25 (7.0 %)      26 (3.5 %)      27 (4.3 %)
        28 (1.8 %)      29 (2.6 %)      30 (1.3 %)      31 (2.2 %)
        32 (6.6 %)      33 (96.1 %)     34 (2.6 %)      35 (65.6 %)
        36 (6.2 %)      37 (23.1 %)     38 (87.1 %)     39 (7.0 %)
        40 (2.6 %)      41 (77.1 %)     42 (5.7 %)      43 (5.3 %)
        44 (3.5 %)      45 (100.0 %)    46 (2.2 %)      47 (1.8 %)
        Total: 1205.1%
Initial condition solution time: CPU = 3.317 ms, elapsed = 3.31903 ms.
Intrinsic tran analysis time:    CPU = 512.265 ms, elapsed = 513.715 ms.
Total time required for tran analysis `tran': CPU = 517.491 ms, elapsed = 519.487 ms, util. = 99.6%.
Time accumulated: CPU = 1.71951 s, elapsed = 2.38478 s.
Peak resident memory used = 213 Mbytes.


Notice from spectre during transient analysis `tran', during Monte Carlo analysis `mc1'.
    34 warnings suppressed.

finalTimeOP: writing operating point information to rawfile.

Opening the PSF file ../psf/mc1_separate/001/finalTimeOP.info ...
modelParameter: writing model parameter values to rawfile.

Opening the PSF file ../psf/mc1_separate/001/modelParameter.info ...
element: writing instance parameter values to rawfile.

Opening the PSF file ../psf/mc1_separate/001/element.info ...
outputParameter: writing output parameter values to rawfile.

Opening the PSF file ../psf/mc1_separate/001/outputParameter.info ...
designParamVals: writing netlist parameters to rawfile.

Opening the PSFASCII file ../psf/mc1_separate/001/designParamVals.info ...
primitives: writing primitives to rawfile.

Opening the PSFASCII file ../psf/mc1_separate/001/primitives.info.primitives ...
subckts: writing subcircuits to rawfile.

Opening the PSFASCII file ../psf/mc1_separate/001/subckts.info.subckts ...
2   2.04% 

*****************************************************************************************
* 
* INFO: AMS_processOption = C35B4C3
* 
* INFO: Valid Modules  PIP VG5 HIRES
* 
*****************************************************************************************


******************
DC Analysis `dcOp'
******************

Opening the PSF file ../psf/mc1_separate/002/dcOp.dc ...
Important parameter values:
    reltol = 100e-06
    abstol(V) = 1 uV
    abstol(I) = 1 pA
    temp = 85 C
    tnom = 27 C
    tempeffects = all
    gmindc = 1 pS
    rabsshort = 1 mOhm

Notice from spectre during DC analysis `dcOp', during Monte Carlo analysis `mc1'.
    Bad pivoting is found during DC analysis. Option dc_pivot_check=yes is recommended for possible improvement of convergence.


Maximum value achieved for any signal of each quantity: 
V: V(S<0>) = 3.3 V
I: I(V0:p) = 6.464 uA
Maximum value of each quantity, excluding Verilog-A modules or dangling current sources:
V: V(vout_filt) = 1.6 V
I: I(V0:p) = 6.464 uA

Warning from spectre during check, during DC analysis `dcOp', during Monte Carlo analysis `mc1'.
    WARNING (CMI-2943): Parameter checks have been ignored because the valid value for parameter 'trise' could not be found in 'C1'.
    WARNING (CMI-2943): Parameter checks have been ignored because the valid value for parameter 'trise' could not be found in 'I0.R2.CM'.
    WARNING (CMI-2943): Parameter checks have been ignored because the valid value for parameter 'trise' could not be found in 'I0.R2.CS1'.
    WARNING (CMI-2943): Parameter checks have been ignored because the valid value for parameter 'trise' could not be found in 'I0.R2.CS0'.
    WARNING (CMI-2943): Parameter checks have been ignored because the valid value for parameter 'trise' could not be found in 'I0.C8<3>.C1'.
        Further occurrences of this warning will be suppressed.

Convergence achieved in 21 iterations.
DC simulation time: CPU = 5.496 ms, elapsed = 6.65617 ms.
Total time required for dc analysis `dcOp': CPU = 5.894 ms, elapsed = 7.05385 ms, util. = 83.6%.
Time accumulated: CPU = 1.76236 s, elapsed = 2.4368 s.
Peak resident memory used = 213 Mbytes.


Notice from spectre during Monte Carlo analysis `mc1'.
    34 warnings suppressed.

dcOpInfo: writing operating point information to rawfile.

Opening the PSF file ../psf/mc1_separate/002/dcOpInfo.info ...

************************************************
Transient Analysis `tran': time = (0 s -> 40 ms)
************************************************

Opening the PSF file ../psf/mc1_separate/002/tran.tran.tran ...

Notice from spectre during IC analysis, during transient analysis `tran', during Monte Carlo analysis `mc1'.
    Bad pivoting is found during DC analysis. Option dc_pivot_check=yes is recommended for possible improvement of convergence.
Warning from spectre during check, during IC analysis, during transient analysis `tran', during Monte Carlo analysis `mc1'.
    WARNING (CMI-2943): Parameter checks have been ignored because the valid value for parameter 'trise' could not be found in 'C1'.
    WARNING (CMI-2943): Parameter checks have been ignored because the valid value for parameter 'trise' could not be found in 'I0.R2.CM'.
    WARNING (CMI-2943): Parameter checks have been ignored because the valid value for parameter 'trise' could not be found in 'I0.R2.CS1'.
    WARNING (CMI-2943): Parameter checks have been ignored because the valid value for parameter 'trise' could not be found in 'I0.R2.CS0'.
    WARNING (CMI-2943): Parameter checks have been ignored because the valid value for parameter 'trise' could not be found in 'I0.C8<3>.C1'.
        Further occurrences of this warning will be suppressed.

Convergence achieved in 21 iterations.
DC simulation time: CPU = 3.083 ms, elapsed = 3.09896 ms.
Important parameter values:
    start = 0 s
    outputstart = 0 s
    stop = 40 ms
    step = 40 us
    maxstep = 400 us
    ic = all
    useprevic = no
    skipdc = no
    reltol = 10e-06
    abstol(V) = 1 uV
    abstol(I) = 1 pA
    temp = 85 C
    tnom = 27 C
    tempeffects = all
    errpreset = conservative
    method = gear2only
    lteratio = 10
    relref = alllocal
    cmin = 0 F
    gmin = 1 pS
    rabsshort = 1 mOhm


Notice from spectre during transient analysis `tran', during Monte Carlo analysis `mc1'.
    Multithreading is disabled due to the size of the design being too small.


Output and IC/nodeset summary:
                 save   8       (current)
                 save   87      (voltage)

    tran: time = 1.016 ms    (2.54 %), step = 48.91 us     (122 m%)
    tran: time = 3.03 ms     (7.57 %), step = 47.79 us     (119 m%)
    tran: time = 5.043 ms    (12.6 %), step = 46.9 us      (117 m%)
    tran: time = 7.01 ms     (17.5 %), step = 49.52 us     (124 m%)
    tran: time = 9.023 ms    (22.6 %), step = 48.3 us      (121 m%)
    tran: time = 11.04 ms    (27.6 %), step = 47.3 us      (118 m%)
    tran: time = 13 ms       (32.5 %), step = 50 us        (125 m%)
    tran: time = 15.02 ms    (37.5 %), step = 48.86 us     (122 m%)
    tran: time = 17.03 ms    (42.6 %), step = 47.74 us     (119 m%)
    tran: time = 19.04 ms    (47.6 %), step = 46.87 us     (117 m%)
    tran: time = 21.01 ms    (52.5 %), step = 49.46 us     (124 m%)
    tran: time = 23.02 ms    (57.6 %), step = 48.26 us     (121 m%)
    tran: time = 25.04 ms    (62.6 %), step = 47.26 us     (118 m%)
    tran: time = 27 ms       (67.5 %), step = 50 us        (125 m%)
    tran: time = 29.02 ms    (72.5 %), step = 48.81 us     (122 m%)
    tran: time = 31.03 ms    (77.6 %), step = 47.7 us      (119 m%)
    tran: time = 33.04 ms    (82.6 %), step = 46.84 us     (117 m%)
    tran: time = 35.01 ms    (87.5 %), step = 49.41 us     (124 m%)
    tran: time = 37.02 ms    (92.6 %), step = 48.21 us     (121 m%)
    tran: time = 39.04 ms    (97.6 %), step = 47.23 us     (118 m%)
Number of accepted tran steps =             852

Maximum value achieved for any signal of each quantity: 
V: V(S<0>) = 3.3 V
I: I(V0:p) = 6.464 uA
Maximum value of each quantity, excluding Verilog-A modules or dangling current sources:
V: V(vout_filt) = 1.614 V
I: I(V0:p) = 6.464 uA

~~~~~~~~~~~~~~~~~~~~~~~~~~~~~~~~~
Post-Transient Simulation Summary
~~~~~~~~~~~~~~~~~~~~~~~~~~~~~~~~~
   -   To further speed up simulation, consider
          add ++aps on command line
   -   Non-default settings that could significantly slow down simulation
          errpreset = conservative, default moderate
          reltol = 10e-06, default 100e-06 (conservative)
~~~~~~~~~~~~~~~~~~~~~~~~~~~~~~~~~


During simulation, the CPU load for active processors is :
         0 (2.2 %)       1 (100.0 %)     2 (21.3 %)      3 (5.6 %)
         4 (7.0 %)       5 (5.9 %)       6 (3.2 %)       7 (5.9 %)
         8 (100.0 %)     9 (1.7 %)      10 (15.3 %)     11 (10.1 %)
        12 (28.2 %)     13 (3.5 %)      14 (8.4 %)      15 (59.2 %)
        16 (35.9 %)     17 (2.8 %)      18 (25.9 %)     19 (38.5 %)
        20 (8.4 %)      21 (100.0 %)    22 (18.8 %)     23 (81.8 %)
        24 (10.9 %)     25 (10.5 %)     26 (3.5 %)      27 (3.8 %)
        28 (2.8 %)      29 (5.9 %)      30 (2.4 %)      31 (2.4 %)
        32 (5.3 %)      33 (96.2 %)     34 (2.4 %)      35 (54.7 %)
        36 (22.8 %)     37 (19.0 %)     38 (89.3 %)     39 (7.0 %)
        40 (2.8 %)      41 (62.3 %)     42 (5.2 %)      43 (4.6 %)
        44 (2.8 %)      45 (100.0 %)    46 (2.5 %)      47 (3.6 %)
        Total: 1212.4%
Initial condition solution time: CPU = 3.127 ms, elapsed = 3.14307 ms.
Intrinsic tran analysis time:    CPU = 513.78 ms, elapsed = 515.316 ms.
Total time required for tran analysis `tran': CPU = 518.652 ms, elapsed = 520.754 ms, util. = 99.6%.
Time accumulated: CPU = 2.28761 s, elapsed = 2.96634 s.
Peak resident memory used = 214 Mbytes.


Notice from spectre during transient analysis `tran', during Monte Carlo analysis `mc1'.
    34 warnings suppressed.

finalTimeOP: writing operating point information to rawfile.

Opening the PSF file ../psf/mc1_separate/002/finalTimeOP.info ...
modelParameter: writing model parameter values to rawfile.

Opening the PSF file ../psf/mc1_separate/002/modelParameter.info ...
element: writing instance parameter values to rawfile.

Opening the PSF file ../psf/mc1_separate/002/element.info ...
outputParameter: writing output parameter values to rawfile.

Opening the PSF file ../psf/mc1_separate/002/outputParameter.info ...
designParamVals: writing netlist parameters to rawfile.

Opening the PSFASCII file ../psf/mc1_separate/002/designParamVals.info ...
primitives: writing primitives to rawfile.

Opening the PSFASCII file ../psf/mc1_separate/002/primitives.info.primitives ...
subckts: writing subcircuits to rawfile.

Opening the PSFASCII file ../psf/mc1_separate/002/subckts.info.subckts ...
3   4.08% 

*****************************************************************************************
* 
* INFO: AMS_processOption = C35B4C3
* 
* INFO: Valid Modules  PIP VG5 HIRES
* 
*****************************************************************************************


******************
DC Analysis `dcOp'
******************

Opening the PSF file ../psf/mc1_separate/003/dcOp.dc ...
Important parameter values:
    reltol = 100e-06
    abstol(V) = 1 uV
    abstol(I) = 1 pA
    temp = 85 C
    tnom = 27 C
    tempeffects = all
    gmindc = 1 pS
    rabsshort = 1 mOhm

Notice from spectre during DC analysis `dcOp', during Monte Carlo analysis `mc1'.
    Bad pivoting is found during DC analysis. Option dc_pivot_check=yes is recommended for possible improvement of convergence.


Maximum value achieved for any signal of each quantity: 
V: V(S<0>) = 3.3 V
I: I(V0:p) = 6.375 uA
Maximum value of each quantity, excluding Verilog-A modules or dangling current sources:
V: V(vout_filt) = 1.6 V
I: I(V0:p) = 6.375 uA

Warning from spectre during check, during DC analysis `dcOp', during Monte Carlo analysis `mc1'.
    WARNING (CMI-2943): Parameter checks have been ignored because the valid value for parameter 'trise' could not be found in 'C1'.
    WARNING (CMI-2943): Parameter checks have been ignored because the valid value for parameter 'trise' could not be found in 'I0.R2.CM'.
    WARNING (CMI-2943): Parameter checks have been ignored because the valid value for parameter 'trise' could not be found in 'I0.R2.CS1'.
    WARNING (CMI-2943): Parameter checks have been ignored because the valid value for parameter 'trise' could not be found in 'I0.R2.CS0'.
    WARNING (CMI-2943): Parameter checks have been ignored because the valid value for parameter 'trise' could not be found in 'I0.C8<3>.C1'.
        Further occurrences of this warning will be suppressed.

Convergence achieved in 22 iterations.
DC simulation time: CPU = 6.013 ms, elapsed = 7.12013 ms.
Total time required for dc analysis `dcOp': CPU = 6.495 ms, elapsed = 7.60317 ms, util. = 85.4%.
Time accumulated: CPU = 2.33234 s, elapsed = 3.02135 s.
Peak resident memory used = 214 Mbytes.


Notice from spectre during Monte Carlo analysis `mc1'.
    34 warnings suppressed.

dcOpInfo: writing operating point information to rawfile.

Opening the PSF file ../psf/mc1_separate/003/dcOpInfo.info ...

************************************************
Transient Analysis `tran': time = (0 s -> 40 ms)
************************************************

Opening the PSF file ../psf/mc1_separate/003/tran.tran.tran ...

Notice from spectre during IC analysis, during transient analysis `tran', during Monte Carlo analysis `mc1'.
    Bad pivoting is found during DC analysis. Option dc_pivot_check=yes is recommended for possible improvement of convergence.
Warning from spectre during check, during IC analysis, during transient analysis `tran', during Monte Carlo analysis `mc1'.
    WARNING (CMI-2943): Parameter checks have been ignored because the valid value for parameter 'trise' could not be found in 'C1'.
    WARNING (CMI-2943): Parameter checks have been ignored because the valid value for parameter 'trise' could not be found in 'I0.R2.CM'.
    WARNING (CMI-2943): Parameter checks have been ignored because the valid value for parameter 'trise' could not be found in 'I0.R2.CS1'.
    WARNING (CMI-2943): Parameter checks have been ignored because the valid value for parameter 'trise' could not be found in 'I0.R2.CS0'.
    WARNING (CMI-2943): Parameter checks have been ignored because the valid value for parameter 'trise' could not be found in 'I0.C8<3>.C1'.
        Further occurrences of this warning will be suppressed.

Convergence achieved in 22 iterations.
DC simulation time: CPU = 3.188 ms, elapsed = 3.18885 ms.
Important parameter values:
    start = 0 s
    outputstart = 0 s
    stop = 40 ms
    step = 40 us
    maxstep = 400 us
    ic = all
    useprevic = no
    skipdc = no
    reltol = 10e-06
    abstol(V) = 1 uV
    abstol(I) = 1 pA
    temp = 85 C
    tnom = 27 C
    tempeffects = all
    errpreset = conservative
    method = gear2only
    lteratio = 10
    relref = alllocal
    cmin = 0 F
    gmin = 1 pS
    rabsshort = 1 mOhm


Notice from spectre during transient analysis `tran', during Monte Carlo analysis `mc1'.
    Multithreading is disabled due to the size of the design being too small.


Output and IC/nodeset summary:
                 save   8       (current)
                 save   87      (voltage)

    tran: time = 1.015 ms    (2.54 %), step = 48.99 us     (122 m%)
    tran: time = 3.029 ms    (7.57 %), step = 47.85 us     (120 m%)
    tran: time = 5.042 ms    (12.6 %), step = 46.96 us     (117 m%)
    tran: time = 7.009 ms    (17.5 %), step = 49.62 us     (124 m%)
    tran: time = 9.022 ms    (22.6 %), step = 48.4 us      (121 m%)
    tran: time = 11.04 ms    (27.6 %), step = 47.38 us     (118 m%)
    tran: time = 13 ms       (32.5 %), step = 50 us        (125 m%)
    tran: time = 15.02 ms    (37.5 %), step = 48.98 us     (122 m%)
    tran: time = 17.03 ms    (42.6 %), step = 47.85 us     (120 m%)
    tran: time = 19.04 ms    (47.6 %), step = 46.96 us     (117 m%)
    tran: time = 21.01 ms    (52.5 %), step = 49.61 us     (124 m%)
    tran: time = 23.02 ms    (57.6 %), step = 48.39 us     (121 m%)
    tran: time = 25.04 ms    (62.6 %), step = 47.37 us     (118 m%)
    tran: time = 27 ms       (67.5 %), step = 50 us        (125 m%)
    tran: time = 29.02 ms    (72.5 %), step = 48.97 us     (122 m%)
    tran: time = 31.03 ms    (77.6 %), step = 47.84 us     (120 m%)
    tran: time = 33.04 ms    (82.6 %), step = 46.95 us     (117 m%)
    tran: time = 35.01 ms    (87.5 %), step = 49.6 us      (124 m%)
    tran: time = 37.02 ms    (92.6 %), step = 48.38 us     (121 m%)
    tran: time = 39.04 ms    (97.6 %), step = 47.37 us     (118 m%)
Number of accepted tran steps =             852

Maximum value achieved for any signal of each quantity: 
V: V(S<0>) = 3.3 V
I: I(V0:p) = 6.375 uA
Maximum value of each quantity, excluding Verilog-A modules or dangling current sources:
V: V(vout_filt) = 1.614 V
I: I(V0:p) = 6.375 uA

~~~~~~~~~~~~~~~~~~~~~~~~~~~~~~~~~
Post-Transient Simulation Summary
~~~~~~~~~~~~~~~~~~~~~~~~~~~~~~~~~
   -   To further speed up simulation, consider
          add ++aps on command line
   -   Non-default settings that could significantly slow down simulation
          errpreset = conservative, default moderate
          reltol = 10e-06, default 100e-06 (conservative)
~~~~~~~~~~~~~~~~~~~~~~~~~~~~~~~~~


During simulation, the CPU load for active processors is :
         0 (2.7 %)       1 (100.0 %)     2 (21.2 %)      3 (5.5 %)
         4 (6.4 %)       5 (5.3 %)       6 (4.7 %)       7 (5.5 %)
         8 (100.0 %)     9 (2.0 %)      10 (13.9 %)     11 (11.6 %)
        12 (33.1 %)     13 (3.2 %)      14 (7.5 %)      15 (49.9 %)
        16 (30.5 %)     17 (2.3 %)      18 (37.1 %)     19 (48.6 %)
        20 (7.3 %)      21 (100.0 %)    22 (15.9 %)     23 (84.8 %)
        24 (26.0 %)     25 (8.7 %)      26 (3.2 %)      27 (3.2 %)
        28 (2.3 %)      29 (21.4 %)     30 (2.0 %)      31 (2.0 %)
        32 (4.4 %)      33 (96.0 %)     34 (2.0 %)      35 (45.6 %)
        36 (19.3 %)     37 (17.6 %)     38 (89.7 %)     39 (7.0 %)
        40 (3.5 %)      41 (52.4 %)     42 (4.7 %)      43 (5.3 %)
        44 (2.6 %)      45 (100.0 %)    46 (2.9 %)      47 (19.7 %)
        Total: 1240.8%
Initial condition solution time: CPU = 3.222 ms, elapsed = 3.22413 ms.
Intrinsic tran analysis time:    CPU = 514.343 ms, elapsed = 516.118 ms.
Total time required for tran analysis `tran': CPU = 519.396 ms, elapsed = 521.848 ms, util. = 99.5%.
Time accumulated: CPU = 2.85868 s, elapsed = 3.55251 s.
Peak resident memory used = 214 Mbytes.


Notice from spectre during transient analysis `tran', during Monte Carlo analysis `mc1'.
    34 warnings suppressed.

finalTimeOP: writing operating point information to rawfile.

Opening the PSF file ../psf/mc1_separate/003/finalTimeOP.info ...
modelParameter: writing model parameter values to rawfile.

Opening the PSF file ../psf/mc1_separate/003/modelParameter.info ...
element: writing instance parameter values to rawfile.

Opening the PSF file ../psf/mc1_separate/003/element.info ...
outputParameter: writing output parameter values to rawfile.

Opening the PSF file ../psf/mc1_separate/003/outputParameter.info ...
designParamVals: writing netlist parameters to rawfile.

Opening the PSFASCII file ../psf/mc1_separate/003/designParamVals.info ...
primitives: writing primitives to rawfile.

Opening the PSFASCII file ../psf/mc1_separate/003/primitives.info.primitives ...
subckts: writing subcircuits to rawfile.

Opening the PSFASCII file ../psf/mc1_separate/003/subckts.info.subckts ...
    mc1: iteration = 3           (4.08 %), step = 1            (2.04 %)
4   6.12% 

*****************************************************************************************
* 
* INFO: AMS_processOption = C35B4C3
* 
* INFO: Valid Modules  PIP VG5 HIRES
* 
*****************************************************************************************


******************
DC Analysis `dcOp'
******************

Opening the PSF file ../psf/mc1_separate/004/dcOp.dc ...
Important parameter values:
    reltol = 100e-06
    abstol(V) = 1 uV
    abstol(I) = 1 pA
    temp = 85 C
    tnom = 27 C
    tempeffects = all
    gmindc = 1 pS
    rabsshort = 1 mOhm

Notice from spectre during DC analysis `dcOp', during Monte Carlo analysis `mc1'.
    Bad pivoting is found during DC analysis. Option dc_pivot_check=yes is recommended for possible improvement of convergence.


Maximum value achieved for any signal of each quantity: 
V: V(S<0>) = 3.3 V
I: I(V0:p) = 6.497 uA
Maximum value of each quantity, excluding Verilog-A modules or dangling current sources:
V: V(net1) = 1.6 V
I: I(V0:p) = 6.497 uA

Warning from spectre during check, during DC analysis `dcOp', during Monte Carlo analysis `mc1'.
    WARNING (CMI-2943): Parameter checks have been ignored because the valid value for parameter 'trise' could not be found in 'C1'.
    WARNING (CMI-2943): Parameter checks have been ignored because the valid value for parameter 'trise' could not be found in 'I0.R2.CM'.
    WARNING (CMI-2943): Parameter checks have been ignored because the valid value for parameter 'trise' could not be found in 'I0.R2.CS1'.
    WARNING (CMI-2943): Parameter checks have been ignored because the valid value for parameter 'trise' could not be found in 'I0.R2.CS0'.
    WARNING (CMI-2943): Parameter checks have been ignored because the valid value for parameter 'trise' could not be found in 'I0.C8<3>.C1'.
        Further occurrences of this warning will be suppressed.

Convergence achieved in 22 iterations.
DC simulation time: CPU = 6.268 ms, elapsed = 7.66301 ms.
Total time required for dc analysis `dcOp': CPU = 6.727 ms, elapsed = 8.12101 ms, util. = 82.8%.
Time accumulated: CPU = 2.90338 s, elapsed = 3.61099 s.
Peak resident memory used = 214 Mbytes.


Notice from spectre during Monte Carlo analysis `mc1'.
    34 warnings suppressed.

dcOpInfo: writing operating point information to rawfile.

Opening the PSF file ../psf/mc1_separate/004/dcOpInfo.info ...

************************************************
Transient Analysis `tran': time = (0 s -> 40 ms)
************************************************

Opening the PSF file ../psf/mc1_separate/004/tran.tran.tran ...

Notice from spectre during IC analysis, during transient analysis `tran', during Monte Carlo analysis `mc1'.
    Bad pivoting is found during DC analysis. Option dc_pivot_check=yes is recommended for possible improvement of convergence.
Warning from spectre during check, during IC analysis, during transient analysis `tran', during Monte Carlo analysis `mc1'.
    WARNING (CMI-2943): Parameter checks have been ignored because the valid value for parameter 'trise' could not be found in 'C1'.
    WARNING (CMI-2943): Parameter checks have been ignored because the valid value for parameter 'trise' could not be found in 'I0.R2.CM'.
    WARNING (CMI-2943): Parameter checks have been ignored because the valid value for parameter 'trise' could not be found in 'I0.R2.CS1'.
    WARNING (CMI-2943): Parameter checks have been ignored because the valid value for parameter 'trise' could not be found in 'I0.R2.CS0'.
    WARNING (CMI-2943): Parameter checks have been ignored because the valid value for parameter 'trise' could not be found in 'I0.C8<3>.C1'.
        Further occurrences of this warning will be suppressed.

Convergence achieved in 22 iterations.
DC simulation time: CPU = 3.127 ms, elapsed = 3.1271 ms.
Important parameter values:
    start = 0 s
    outputstart = 0 s
    stop = 40 ms
    step = 40 us
    maxstep = 400 us
    ic = all
    useprevic = no
    skipdc = no
    reltol = 10e-06
    abstol(V) = 1 uV
    abstol(I) = 1 pA
    temp = 85 C
    tnom = 27 C
    tempeffects = all
    errpreset = conservative
    method = gear2only
    lteratio = 10
    relref = alllocal
    cmin = 0 F
    gmin = 1 pS
    rabsshort = 1 mOhm


Notice from spectre during transient analysis `tran', during Monte Carlo analysis `mc1'.
    Multithreading is disabled due to the size of the design being too small.


Output and IC/nodeset summary:
                 save   8       (current)
                 save   87      (voltage)

    tran: time = 1.016 ms    (2.54 %), step = 48.92 us     (122 m%)
    tran: time = 3.029 ms    (7.57 %), step = 47.82 us     (120 m%)
    tran: time = 5.042 ms    (12.6 %), step = 46.95 us     (117 m%)
    tran: time = 7.009 ms    (17.5 %), step = 49.63 us     (124 m%)
    tran: time = 9.021 ms    (22.6 %), step = 48.42 us     (121 m%)
    tran: time = 11.03 ms    (27.6 %), step = 47.41 us     (119 m%)
    tran: time = 13 ms       (32.5 %), step = 50 us        (125 m%)
    tran: time = 15.01 ms    (37.5 %), step = 49.08 us     (123 m%)
    tran: time = 17.03 ms    (42.6 %), step = 47.96 us     (120 m%)
    tran: time = 19.04 ms    (47.6 %), step = 47.06 us     (118 m%)
    tran: time = 21.01 ms    (52.5 %), step = 49.82 us     (125 m%)
    tran: time = 23.02 ms    (57.5 %), step = 48.58 us     (121 m%)
    tran: time = 25.03 ms    (62.6 %), step = 47.54 us     (119 m%)
    tran: time = 27.05 ms    (67.6 %), step = 46.73 us     (117 m%)
    tran: time = 29.01 ms    (72.5 %), step = 49.25 us     (123 m%)
    tran: time = 31.03 ms    (77.6 %), step = 48.11 us     (120 m%)
    tran: time = 33.04 ms    (82.6 %), step = 47.17 us     (118 m%)
    tran: time = 35.01 ms    (87.5 %), step = 50 us        (125 m%)
    tran: time = 37.02 ms    (92.5 %), step = 48.73 us     (122 m%)
    tran: time = 39.03 ms    (97.6 %), step = 47.66 us     (119 m%)
Number of accepted tran steps =             852

Maximum value achieved for any signal of each quantity: 
V: V(S<0>) = 3.3 V
I: I(V0:p) = 6.498 uA
Maximum value of each quantity, excluding Verilog-A modules or dangling current sources:
V: V(vout_filt) = 1.612 V
I: I(V0:p) = 6.498 uA

~~~~~~~~~~~~~~~~~~~~~~~~~~~~~~~~~
Post-Transient Simulation Summary
~~~~~~~~~~~~~~~~~~~~~~~~~~~~~~~~~
   -   To further speed up simulation, consider
          add ++aps on command line
   -   Non-default settings that could significantly slow down simulation
          errpreset = conservative, default moderate
          reltol = 10e-06, default 100e-06 (conservative)
~~~~~~~~~~~~~~~~~~~~~~~~~~~~~~~~~


During simulation, the CPU load for active processors is :
         0 (4.6 %)       1 (100.0 %)     2 (21.3 %)      3 (5.2 %)
         4 (6.0 %)       5 (4.5 %)       6 (4.0 %)       7 (5.0 %)
         8 (100.0 %)     9 (1.7 %)      10 (14.7 %)     11 (11.4 %)
        12 (30.7 %)     13 (3.0 %)      14 (6.7 %)      15 (43.8 %)
        16 (26.4 %)     17 (2.8 %)      18 (45.8 %)     19 (54.3 %)
        20 (7.4 %)      21 (100.0 %)    22 (15.6 %)     23 (87.0 %)
        24 (32.0 %)     25 (11.4 %)     26 (3.0 %)      27 (2.7 %)
        28 (3.2 %)      29 (31.9 %)     30 (2.5 %)      31 (2.5 %)
        32 (4.0 %)      33 (96.1 %)     34 (2.0 %)      35 (39.4 %)
        36 (17.5 %)     37 (15.5 %)     38 (90.7 %)     39 (6.0 %)
        40 (3.7 %)      41 (45.4 %)     42 (4.5 %)      43 (4.5 %)
        44 (2.8 %)      45 (100.0 %)    46 (2.8 %)      47 (31.2 %)
        Total: 1257.4%
Initial condition solution time: CPU = 3.159 ms, elapsed = 3.16191 ms.
Intrinsic tran analysis time:    CPU = 517.465 ms, elapsed = 518.956 ms.
Total time required for tran analysis `tran': CPU = 522.582 ms, elapsed = 524.691 ms, util. = 99.6%.
Time accumulated: CPU = 3.43297 s, elapsed = 4.14504 s.
Peak resident memory used = 214 Mbytes.


Notice from spectre during transient analysis `tran', during Monte Carlo analysis `mc1'.
    34 warnings suppressed.

finalTimeOP: writing operating point information to rawfile.

Opening the PSF file ../psf/mc1_separate/004/finalTimeOP.info ...
modelParameter: writing model parameter values to rawfile.

Opening the PSF file ../psf/mc1_separate/004/modelParameter.info ...
element: writing instance parameter values to rawfile.

Opening the PSF file ../psf/mc1_separate/004/element.info ...
outputParameter: writing output parameter values to rawfile.

Opening the PSF file ../psf/mc1_separate/004/outputParameter.info ...
designParamVals: writing netlist parameters to rawfile.

Opening the PSFASCII file ../psf/mc1_separate/004/designParamVals.info ...
primitives: writing primitives to rawfile.

Opening the PSFASCII file ../psf/mc1_separate/004/primitives.info.primitives ...
subckts: writing subcircuits to rawfile.

Opening the PSFASCII file ../psf/mc1_separate/004/subckts.info.subckts ...
    mc1: iteration = 4           (6.12 %), step = 1            (2.04 %)
5   8.16% 

*****************************************************************************************
* 
* INFO: AMS_processOption = C35B4C3
* 
* INFO: Valid Modules  PIP VG5 HIRES
* 
*****************************************************************************************


******************
DC Analysis `dcOp'
******************

Opening the PSF file ../psf/mc1_separate/005/dcOp.dc ...
Important parameter values:
    reltol = 100e-06
    abstol(V) = 1 uV
    abstol(I) = 1 pA
    temp = 85 C
    tnom = 27 C
    tempeffects = all
    gmindc = 1 pS
    rabsshort = 1 mOhm

Notice from spectre during DC analysis `dcOp', during Monte Carlo analysis `mc1'.
    Bad pivoting is found during DC analysis. Option dc_pivot_check=yes is recommended for possible improvement of convergence.


Maximum value achieved for any signal of each quantity: 
V: V(S<0>) = 3.3 V
I: I(V0:p) = 6.423 uA
Maximum value of each quantity, excluding Verilog-A modules or dangling current sources:
V: V(vout_filt) = 1.6 V
I: I(V0:p) = 6.423 uA

Warning from spectre during check, during DC analysis `dcOp', during Monte Carlo analysis `mc1'.
    WARNING (CMI-2943): Parameter checks have been ignored because the valid value for parameter 'trise' could not be found in 'C1'.
    WARNING (CMI-2943): Parameter checks have been ignored because the valid value for parameter 'trise' could not be found in 'I0.R2.CM'.
    WARNING (CMI-2943): Parameter checks have been ignored because the valid value for parameter 'trise' could not be found in 'I0.R2.CS1'.
    WARNING (CMI-2943): Parameter checks have been ignored because the valid value for parameter 'trise' could not be found in 'I0.R2.CS0'.
    WARNING (CMI-2943): Parameter checks have been ignored because the valid value for parameter 'trise' could not be found in 'I0.C8<3>.C1'.
        Further occurrences of this warning will be suppressed.

Convergence achieved in 23 iterations.
DC simulation time: CPU = 6.092 ms, elapsed = 7.48515 ms.
Total time required for dc analysis `dcOp': CPU = 6.575 ms, elapsed = 7.967 ms, util. = 82.5%.
Time accumulated: CPU = 3.48144 s, elapsed = 4.20443 s.
Peak resident memory used = 214 Mbytes.


Notice from spectre during Monte Carlo analysis `mc1'.
    34 warnings suppressed.

dcOpInfo: writing operating point information to rawfile.

Opening the PSF file ../psf/mc1_separate/005/dcOpInfo.info ...

************************************************
Transient Analysis `tran': time = (0 s -> 40 ms)
************************************************

Opening the PSF file ../psf/mc1_separate/005/tran.tran.tran ...

Notice from spectre during IC analysis, during transient analysis `tran', during Monte Carlo analysis `mc1'.
    Bad pivoting is found during DC analysis. Option dc_pivot_check=yes is recommended for possible improvement of convergence.
Warning from spectre during check, during IC analysis, during transient analysis `tran', during Monte Carlo analysis `mc1'.
    WARNING (CMI-2943): Parameter checks have been ignored because the valid value for parameter 'trise' could not be found in 'C1'.
    WARNING (CMI-2943): Parameter checks have been ignored because the valid value for parameter 'trise' could not be found in 'I0.R2.CM'.
    WARNING (CMI-2943): Parameter checks have been ignored because the valid value for parameter 'trise' could not be found in 'I0.R2.CS1'.
    WARNING (CMI-2943): Parameter checks have been ignored because the valid value for parameter 'trise' could not be found in 'I0.R2.CS0'.
    WARNING (CMI-2943): Parameter checks have been ignored because the valid value for parameter 'trise' could not be found in 'I0.C8<3>.C1'.
        Further occurrences of this warning will be suppressed.

Convergence achieved in 23 iterations.
DC simulation time: CPU = 3.398 ms, elapsed = 3.39913 ms.
Important parameter values:
    start = 0 s
    outputstart = 0 s
    stop = 40 ms
    step = 40 us
    maxstep = 400 us
    ic = all
    useprevic = no
    skipdc = no
    reltol = 10e-06
    abstol(V) = 1 uV
    abstol(I) = 1 pA
    temp = 85 C
    tnom = 27 C
    tempeffects = all
    errpreset = conservative
    method = gear2only
    lteratio = 10
    relref = alllocal
    cmin = 0 F
    gmin = 1 pS
    rabsshort = 1 mOhm


Notice from spectre during transient analysis `tran', during Monte Carlo analysis `mc1'.
    Multithreading is disabled due to the size of the design being too small.


Output and IC/nodeset summary:
                 save   8       (current)
                 save   87      (voltage)

    tran: time = 1.016 ms    (2.54 %), step = 48.94 us     (122 m%)
    tran: time = 3.029 ms    (7.57 %), step = 47.81 us     (120 m%)
    tran: time = 5.043 ms    (12.6 %), step = 46.92 us     (117 m%)
    tran: time = 7.01 ms     (17.5 %), step = 49.53 us     (124 m%)
    tran: time = 9.023 ms    (22.6 %), step = 48.3 us      (121 m%)
    tran: time = 11.04 ms    (27.6 %), step = 47.3 us      (118 m%)
    tran: time = 13 ms       (32.5 %), step = 50 us        (125 m%)
    tran: time = 15.02 ms    (37.5 %), step = 48.84 us     (122 m%)
    tran: time = 17.03 ms    (42.6 %), step = 47.72 us     (119 m%)
    tran: time = 19.04 ms    (47.6 %), step = 46.85 us     (117 m%)
    tran: time = 21.01 ms    (52.5 %), step = 49.42 us     (124 m%)
    tran: time = 23.02 ms    (57.6 %), step = 48.21 us     (121 m%)
    tran: time = 25.04 ms    (62.6 %), step = 47.23 us     (118 m%)
    tran: time = 27 ms       (67.5 %), step = 50 us        (125 m%)
    tran: time = 29.02 ms    (72.5 %), step = 48.74 us     (122 m%)
    tran: time = 31.03 ms    (77.6 %), step = 47.64 us     (119 m%)
    tran: time = 33.05 ms    (82.6 %), step = 46.79 us     (117 m%)
    tran: time = 35.01 ms    (87.5 %), step = 49.3 us      (123 m%)
    tran: time = 37.03 ms    (92.6 %), step = 48.12 us     (120 m%)
    tran: time = 39.04 ms    (97.6 %), step = 47.15 us     (118 m%)
Number of accepted tran steps =             852

Maximum value achieved for any signal of each quantity: 
V: V(S<0>) = 3.3 V
I: I(V0:p) = 6.423 uA
Maximum value of each quantity, excluding Verilog-A modules or dangling current sources:
V: V(vout_filt) = 1.614 V
I: I(V0:p) = 6.423 uA

~~~~~~~~~~~~~~~~~~~~~~~~~~~~~~~~~
Post-Transient Simulation Summary
~~~~~~~~~~~~~~~~~~~~~~~~~~~~~~~~~
   -   To further speed up simulation, consider
          add ++aps on command line
   -   Non-default settings that could significantly slow down simulation
          errpreset = conservative, default moderate
          reltol = 10e-06, default 100e-06 (conservative)
~~~~~~~~~~~~~~~~~~~~~~~~~~~~~~~~~


During simulation, the CPU load for active processors is :
         0 (4.4 %)       1 (100.0 %)     2 (21.8 %)      3 (4.8 %)
         4 (5.4 %)       5 (3.9 %)       6 (3.7 %)       7 (4.8 %)
         8 (100.0 %)     9 (1.7 %)      10 (15.5 %)     11 (11.5 %)
        12 (27.5 %)     13 (2.8 %)      14 (6.1 %)      15 (49.6 %)
        16 (23.2 %)     17 (2.6 %)      18 (41.7 %)     19 (60.1 %)
        20 (6.9 %)      21 (100.0 %)    22 (14.3 %)     23 (88.7 %)
        24 (28.1 %)     25 (20.3 %)     26 (2.8 %)      27 (2.4 %)
        28 (3.1 %)      29 (28.7 %)     30 (2.4 %)      31 (2.4 %)
        32 (4.6 %)      33 (96.2 %)     34 (13.2 %)     35 (34.5 %)
        36 (15.5 %)     37 (14.0 %)     38 (85.0 %)     39 (6.3 %)
        40 (3.7 %)      41 (45.5 %)     42 (4.2 %)      43 (5.3 %)
        44 (3.1 %)      45 (100.0 %)    46 (2.8 %)      47 (39.6 %)
        Total: 1264.6%
Initial condition solution time: CPU = 3.431 ms, elapsed = 3.4349 ms.
Intrinsic tran analysis time:    CPU = 513.777 ms, elapsed = 515.076 ms.
Total time required for tran analysis `tran': CPU = 519.171 ms, elapsed = 521.036 ms, util. = 99.6%.
Time accumulated: CPU = 4.0077 s, elapsed = 4.735 s.
Peak resident memory used = 214 Mbytes.


Notice from spectre during transient analysis `tran', during Monte Carlo analysis `mc1'.
    34 warnings suppressed.

finalTimeOP: writing operating point information to rawfile.

Opening the PSF file ../psf/mc1_separate/005/finalTimeOP.info ...
modelParameter: writing model parameter values to rawfile.

Opening the PSF file ../psf/mc1_separate/005/modelParameter.info ...
element: writing instance parameter values to rawfile.

Opening the PSF file ../psf/mc1_separate/005/element.info ...
outputParameter: writing output parameter values to rawfile.

Opening the PSF file ../psf/mc1_separate/005/outputParameter.info ...
designParamVals: writing netlist parameters to rawfile.

Opening the PSFASCII file ../psf/mc1_separate/005/designParamVals.info ...
primitives: writing primitives to rawfile.

Opening the PSFASCII file ../psf/mc1_separate/005/primitives.info.primitives ...
subckts: writing subcircuits to rawfile.

Opening the PSFASCII file ../psf/mc1_separate/005/subckts.info.subckts ...
    mc1: iteration = 5           (8.16 %), step = 1            (2.04 %)
6  10.20% 

*****************************************************************************************
* 
* INFO: AMS_processOption = C35B4C3
* 
* INFO: Valid Modules  PIP VG5 HIRES
* 
*****************************************************************************************


******************
DC Analysis `dcOp'
******************

Opening the PSF file ../psf/mc1_separate/006/dcOp.dc ...
Important parameter values:
    reltol = 100e-06
    abstol(V) = 1 uV
    abstol(I) = 1 pA
    temp = 85 C
    tnom = 27 C
    tempeffects = all
    gmindc = 1 pS
    rabsshort = 1 mOhm

Notice from spectre during DC analysis `dcOp', during Monte Carlo analysis `mc1'.
    Bad pivoting is found during DC analysis. Option dc_pivot_check=yes is recommended for possible improvement of convergence.


Maximum value achieved for any signal of each quantity: 
V: V(S<0>) = 3.3 V
I: I(V0:p) = 6.445 uA
Maximum value of each quantity, excluding Verilog-A modules or dangling current sources:
V: V(net1) = 1.6 V
I: I(V0:p) = 6.445 uA

Warning from spectre during check, during DC analysis `dcOp', during Monte Carlo analysis `mc1'.
    WARNING (CMI-2943): Parameter checks have been ignored because the valid value for parameter 'trise' could not be found in 'C1'.
    WARNING (CMI-2943): Parameter checks have been ignored because the valid value for parameter 'trise' could not be found in 'I0.R2.CM'.
    WARNING (CMI-2943): Parameter checks have been ignored because the valid value for parameter 'trise' could not be found in 'I0.R2.CS1'.
    WARNING (CMI-2943): Parameter checks have been ignored because the valid value for parameter 'trise' could not be found in 'I0.R2.CS0'.
    WARNING (CMI-2943): Parameter checks have been ignored because the valid value for parameter 'trise' could not be found in 'I0.C8<3>.C1'.
        Further occurrences of this warning will be suppressed.

Convergence achieved in 22 iterations.
DC simulation time: CPU = 5.584 ms, elapsed = 6.65903 ms.
Total time required for dc analysis `dcOp': CPU = 6.017 ms, elapsed = 7.092 ms, util. = 84.8%.
Time accumulated: CPU = 4.05102 s, elapsed = 4.78834 s.
Peak resident memory used = 214 Mbytes.


Notice from spectre during Monte Carlo analysis `mc1'.
    34 warnings suppressed.

dcOpInfo: writing operating point information to rawfile.

Opening the PSF file ../psf/mc1_separate/006/dcOpInfo.info ...

************************************************
Transient Analysis `tran': time = (0 s -> 40 ms)
************************************************

Opening the PSF file ../psf/mc1_separate/006/tran.tran.tran ...

Notice from spectre during IC analysis, during transient analysis `tran', during Monte Carlo analysis `mc1'.
    Bad pivoting is found during DC analysis. Option dc_pivot_check=yes is recommended for possible improvement of convergence.
Warning from spectre during check, during IC analysis, during transient analysis `tran', during Monte Carlo analysis `mc1'.
    WARNING (CMI-2943): Parameter checks have been ignored because the valid value for parameter 'trise' could not be found in 'C1'.
    WARNING (CMI-2943): Parameter checks have been ignored because the valid value for parameter 'trise' could not be found in 'I0.R2.CM'.
    WARNING (CMI-2943): Parameter checks have been ignored because the valid value for parameter 'trise' could not be found in 'I0.R2.CS1'.
    WARNING (CMI-2943): Parameter checks have been ignored because the valid value for parameter 'trise' could not be found in 'I0.R2.CS0'.
    WARNING (CMI-2943): Parameter checks have been ignored because the valid value for parameter 'trise' could not be found in 'I0.C8<3>.C1'.
        Further occurrences of this warning will be suppressed.

Convergence achieved in 22 iterations.
DC simulation time: CPU = 3.2 ms, elapsed = 3.20101 ms.
Important parameter values:
    start = 0 s
    outputstart = 0 s
    stop = 40 ms
    step = 40 us
    maxstep = 400 us
    ic = all
    useprevic = no
    skipdc = no
    reltol = 10e-06
    abstol(V) = 1 uV
    abstol(I) = 1 pA
    temp = 85 C
    tnom = 27 C
    tempeffects = all
    errpreset = conservative
    method = gear2only
    lteratio = 10
    relref = alllocal
    cmin = 0 F
    gmin = 1 pS
    rabsshort = 1 mOhm


Notice from spectre during transient analysis `tran', during Monte Carlo analysis `mc1'.
    Multithreading is disabled due to the size of the design being too small.


Output and IC/nodeset summary:
                 save   8       (current)
                 save   87      (voltage)

    tran: time = 1.016 ms    (2.54 %), step = 48.92 us     (122 m%)
    tran: time = 3.029 ms    (7.57 %), step = 47.81 us     (120 m%)
    tran: time = 5.042 ms    (12.6 %), step = 46.93 us     (117 m%)
    tran: time = 7.009 ms    (17.5 %), step = 49.59 us     (124 m%)
    tran: time = 9.022 ms    (22.6 %), step = 48.38 us     (121 m%)
    tran: time = 11.04 ms    (27.6 %), step = 47.37 us     (118 m%)
    tran: time = 13 ms       (32.5 %), step = 50 us        (125 m%)
    tran: time = 15.01 ms    (37.5 %), step = 49 us        (122 m%)
    tran: time = 17.03 ms    (42.6 %), step = 47.87 us     (120 m%)
    tran: time = 19.04 ms    (47.6 %), step = 46.98 us     (117 m%)
    tran: time = 21.01 ms    (52.5 %), step = 49.68 us     (124 m%)
    tran: time = 23.02 ms    (57.6 %), step = 48.46 us     (121 m%)
    tran: time = 25.03 ms    (62.6 %), step = 47.43 us     (119 m%)
    tran: time = 27 ms       (67.5 %), step = 50 us        (125 m%)
    tran: time = 29.01 ms    (72.5 %), step = 49.09 us     (123 m%)
    tran: time = 31.03 ms    (77.6 %), step = 47.95 us     (120 m%)
    tran: time = 33.04 ms    (82.6 %), step = 47.05 us     (118 m%)
    tran: time = 35.01 ms    (87.5 %), step = 49.79 us     (124 m%)
    tran: time = 37.02 ms    (92.5 %), step = 48.55 us     (121 m%)
    tran: time = 39.03 ms    (97.6 %), step = 47.51 us     (119 m%)
Number of accepted tran steps =             852

Maximum value achieved for any signal of each quantity: 
V: V(S<0>) = 3.3 V
I: I(V0:p) = 6.445 uA
Maximum value of each quantity, excluding Verilog-A modules or dangling current sources:
V: V(vout_filt) = 1.612 V
I: I(V0:p) = 6.445 uA

~~~~~~~~~~~~~~~~~~~~~~~~~~~~~~~~~
Post-Transient Simulation Summary
~~~~~~~~~~~~~~~~~~~~~~~~~~~~~~~~~
   -   To further speed up simulation, consider
          add ++aps on command line
   -   Non-default settings that could significantly slow down simulation
          errpreset = conservative, default moderate
          reltol = 10e-06, default 100e-06 (conservative)
~~~~~~~~~~~~~~~~~~~~~~~~~~~~~~~~~


During simulation, the CPU load for active processors is :
         0 (4.3 %)       1 (100.0 %)     2 (21.7 %)      3 (5.8 %)
         4 (5.4 %)       5 (4.3 %)       6 (3.9 %)       7 (4.7 %)
         8 (100.0 %)     9 (2.3 %)      10 (22.4 %)     11 (12.3 %)
        12 (25.6 %)     13 (3.1 %)      14 (5.8 %)      15 (55.1 %)
        16 (21.3 %)     17 (2.9 %)      18 (37.2 %)     19 (63.2 %)
        20 (6.4 %)      21 (100.0 %)    22 (13.2 %)     23 (89.9 %)
        24 (28.8 %)     25 (24.4 %)     26 (2.9 %)      27 (2.9 %)
        28 (2.9 %)      29 (26.1 %)     30 (4.2 %)      31 (2.3 %)
        32 (7.6 %)      33 (96.0 %)     34 (22.0 %)     35 (30.9 %)
        36 (15.0 %)     37 (13.4 %)     38 (84.7 %)     39 (6.8 %)
        40 (4.1 %)      41 (50.5 %)     42 (4.5 %)      43 (5.4 %)
        44 (3.3 %)      45 (100.0 %)    46 (3.3 %)      47 (46.2 %)
        Total: 1298.9%
Initial condition solution time: CPU = 3.233 ms, elapsed = 3.23391 ms.
Intrinsic tran analysis time:    CPU = 515.111 ms, elapsed = 516.441 ms.
Total time required for tran analysis `tran': CPU = 520.105 ms, elapsed = 521.962 ms, util. = 99.6%.
Time accumulated: CPU = 4.57784 s, elapsed = 5.31911 s.
Peak resident memory used = 214 Mbytes.


Notice from spectre during transient analysis `tran', during Monte Carlo analysis `mc1'.
    34 warnings suppressed.

finalTimeOP: writing operating point information to rawfile.

Opening the PSF file ../psf/mc1_separate/006/finalTimeOP.info ...
modelParameter: writing model parameter values to rawfile.

Opening the PSF file ../psf/mc1_separate/006/modelParameter.info ...
element: writing instance parameter values to rawfile.

Opening the PSF file ../psf/mc1_separate/006/element.info ...
outputParameter: writing output parameter values to rawfile.

Opening the PSF file ../psf/mc1_separate/006/outputParameter.info ...
designParamVals: writing netlist parameters to rawfile.

Opening the PSFASCII file ../psf/mc1_separate/006/designParamVals.info ...
primitives: writing primitives to rawfile.

Opening the PSFASCII file ../psf/mc1_separate/006/primitives.info.primitives ...
subckts: writing subcircuits to rawfile.

Opening the PSFASCII file ../psf/mc1_separate/006/subckts.info.subckts ...
    mc1: iteration = 6           (10.2 %), step = 1            (2.04 %)
7  12.24% 

*****************************************************************************************
* 
* INFO: AMS_processOption = C35B4C3
* 
* INFO: Valid Modules  PIP VG5 HIRES
* 
*****************************************************************************************


******************
DC Analysis `dcOp'
******************

Opening the PSF file ../psf/mc1_separate/007/dcOp.dc ...
Important parameter values:
    reltol = 100e-06
    abstol(V) = 1 uV
    abstol(I) = 1 pA
    temp = 85 C
    tnom = 27 C
    tempeffects = all
    gmindc = 1 pS
    rabsshort = 1 mOhm

Notice from spectre during DC analysis `dcOp', during Monte Carlo analysis `mc1'.
    Bad pivoting is found during DC analysis. Option dc_pivot_check=yes is recommended for possible improvement of convergence.


Maximum value achieved for any signal of each quantity: 
V: V(S<0>) = 3.3 V
I: I(V0:p) = 6.582 uA
Maximum value of each quantity, excluding Verilog-A modules or dangling current sources:
V: V(vout_filt) = 1.601 V
I: I(V0:p) = 6.582 uA

Warning from spectre during check, during DC analysis `dcOp', during Monte Carlo analysis `mc1'.
    WARNING (CMI-2943): Parameter checks have been ignored because the valid value for parameter 'trise' could not be found in 'C1'.
    WARNING (CMI-2943): Parameter checks have been ignored because the valid value for parameter 'trise' could not be found in 'I0.R2.CM'.
    WARNING (CMI-2943): Parameter checks have been ignored because the valid value for parameter 'trise' could not be found in 'I0.R2.CS1'.
    WARNING (CMI-2943): Parameter checks have been ignored because the valid value for parameter 'trise' could not be found in 'I0.R2.CS0'.
    WARNING (CMI-2943): Parameter checks have been ignored because the valid value for parameter 'trise' could not be found in 'I0.C8<3>.C1'.
        Further occurrences of this warning will be suppressed.

Convergence achieved in 21 iterations.
DC simulation time: CPU = 6.127 ms, elapsed = 7.23696 ms.
Total time required for dc analysis `dcOp': CPU = 6.695 ms, elapsed = 7.80296 ms, util. = 85.8%.
Time accumulated: CPU = 4.62332 s, elapsed = 5.37482 s.
Peak resident memory used = 214 Mbytes.


Notice from spectre during Monte Carlo analysis `mc1'.
    34 warnings suppressed.

dcOpInfo: writing operating point information to rawfile.

Opening the PSF file ../psf/mc1_separate/007/dcOpInfo.info ...

************************************************
Transient Analysis `tran': time = (0 s -> 40 ms)
************************************************

Opening the PSF file ../psf/mc1_separate/007/tran.tran.tran ...

Notice from spectre during IC analysis, during transient analysis `tran', during Monte Carlo analysis `mc1'.
    Bad pivoting is found during DC analysis. Option dc_pivot_check=yes is recommended for possible improvement of convergence.
Warning from spectre during check, during IC analysis, during transient analysis `tran', during Monte Carlo analysis `mc1'.
    WARNING (CMI-2943): Parameter checks have been ignored because the valid value for parameter 'trise' could not be found in 'C1'.
    WARNING (CMI-2943): Parameter checks have been ignored because the valid value for parameter 'trise' could not be found in 'I0.R2.CM'.
    WARNING (CMI-2943): Parameter checks have been ignored because the valid value for parameter 'trise' could not be found in 'I0.R2.CS1'.
    WARNING (CMI-2943): Parameter checks have been ignored because the valid value for parameter 'trise' could not be found in 'I0.R2.CS0'.
    WARNING (CMI-2943): Parameter checks have been ignored because the valid value for parameter 'trise' could not be found in 'I0.C8<3>.C1'.
        Further occurrences of this warning will be suppressed.

Convergence achieved in 21 iterations.
DC simulation time: CPU = 3.046 ms, elapsed = 3.04604 ms.
Important parameter values:
    start = 0 s
    outputstart = 0 s
    stop = 40 ms
    step = 40 us
    maxstep = 400 us
    ic = all
    useprevic = no
    skipdc = no
    reltol = 10e-06
    abstol(V) = 1 uV
    abstol(I) = 1 pA
    temp = 85 C
    tnom = 27 C
    tempeffects = all
    errpreset = conservative
    method = gear2only
    lteratio = 10
    relref = alllocal
    cmin = 0 F
    gmin = 1 pS
    rabsshort = 1 mOhm


Notice from spectre during transient analysis `tran', during Monte Carlo analysis `mc1'.
    Multithreading is disabled due to the size of the design being too small.


Output and IC/nodeset summary:
                 save   8       (current)
                 save   87      (voltage)

    tran: time = 1.026 ms    (2.56 %), step = 48.09 us     (120 m%)
    tran: time = 3.039 ms     (7.6 %), step = 47.12 us     (118 m%)
    tran: time = 5.007 ms    (12.5 %), step = 49.87 us     (125 m%)
    tran: time = 7.02 ms     (17.5 %), step = 48.58 us     (121 m%)
    tran: time = 9.034 ms    (22.6 %), step = 47.51 us     (119 m%)
    tran: time = 11 ms       (27.5 %), step = 50 us        (125 m%)
    tran: time = 13.01 ms    (32.5 %), step = 49.11 us     (123 m%)
    tran: time = 15.03 ms    (37.6 %), step = 47.94 us     (120 m%)
    tran: time = 17.04 ms    (42.6 %), step = 47.02 us     (118 m%)
    tran: time = 19.01 ms    (47.5 %), step = 49.69 us     (124 m%)
    tran: time = 21.02 ms    (52.6 %), step = 48.43 us     (121 m%)
    tran: time = 23.04 ms    (57.6 %), step = 47.39 us     (118 m%)
    tran: time = 25 ms       (62.5 %), step = 50 us        (125 m%)
    tran: time = 27.02 ms    (67.5 %), step = 48.94 us     (122 m%)
    tran: time = 29.03 ms    (72.6 %), step = 47.79 us     (119 m%)
    tran: time = 31.04 ms    (77.6 %), step = 46.9 us      (117 m%)
    tran: time = 33.01 ms    (82.5 %), step = 49.49 us     (124 m%)
    tran: time = 35.02 ms    (87.6 %), step = 48.26 us     (121 m%)
    tran: time = 37.04 ms    (92.6 %), step = 47.26 us     (118 m%)
    tran: time = 39 ms       (97.5 %), step = 50 us        (125 m%)
Number of accepted tran steps =             851

[...]
Initial condition solution time: CPU = 2.907 ms, elapsed = 2.90918 ms.
Intrinsic tran analysis time:    CPU = 444.583 ms, elapsed = 446.334 ms.
Total time required for tran analysis `tran': CPU = 449.208 ms, elapsed = 451.456 ms, util. = 99.5%.
Time accumulated: CPU = 27.642 s, elapsed = 29.0436 s.
Peak resident memory used = 215 Mbytes.


Notice from spectre during transient analysis `tran', during Monte Carlo analysis `mc1'.
    34 warnings suppressed.

finalTimeOP: writing operating point information to rawfile.

Opening the PSF file ../psf/mc1_separate/048/finalTimeOP.info ...
modelParameter: writing model parameter values to rawfile.

Opening the PSF file ../psf/mc1_separate/048/modelParameter.info ...
element: writing instance parameter values to rawfile.

Opening the PSF file ../psf/mc1_separate/048/element.info ...
outputParameter: writing output parameter values to rawfile.

Opening the PSF file ../psf/mc1_separate/048/outputParameter.info ...
designParamVals: writing netlist parameters to rawfile.

Opening the PSFASCII file ../psf/mc1_separate/048/designParamVals.info ...
primitives: writing primitives to rawfile.

Opening the PSFASCII file ../psf/mc1_separate/048/primitives.info.primitives ...
subckts: writing subcircuits to rawfile.

Opening the PSFASCII file ../psf/mc1_separate/048/subckts.info.subckts ...
    mc1: iteration = 48          (95.9 %), step = 1            (2.04 %)
49  97.96% 

*****************************************************************************************
* 
* INFO: AMS_processOption = C35B4C3
* 
* INFO: Valid Modules  PIP VG5 HIRES
* 
*****************************************************************************************


******************
DC Analysis `dcOp'
******************

Opening the PSF file ../psf/mc1_separate/049/dcOp.dc ...
Important parameter values:
    reltol = 100e-06
    abstol(V) = 1 uV
    abstol(I) = 1 pA
    temp = 85 C
    tnom = 27 C
    tempeffects = all
    gmindc = 1 pS
    rabsshort = 1 mOhm

Notice from spectre during DC analysis `dcOp', during Monte Carlo analysis `mc1'.
    Bad pivoting is found during DC analysis. Option dc_pivot_check=yes is recommended for possible improvement of convergence.


Maximum value achieved for any signal of each quantity: 
V: V(S<0>) = 3.3 V
I: I(V0:p) = 6.475 uA
Maximum value of each quantity, excluding Verilog-A modules or dangling current sources:
V: V(vout_filt) = 1.6 V
I: I(V0:p) = 6.475 uA

Warning from spectre during check, during DC analysis `dcOp', during Monte Carlo analysis `mc1'.
    WARNING (CMI-2943): Parameter checks have been ignored because the valid value for parameter 'trise' could not be found in 'C1'.
    WARNING (CMI-2943): Parameter checks have been ignored because the valid value for parameter 'trise' could not be found in 'I0.R2.CM'.
    WARNING (CMI-2943): Parameter checks have been ignored because the valid value for parameter 'trise' could not be found in 'I0.R2.CS1'.
    WARNING (CMI-2943): Parameter checks have been ignored because the valid value for parameter 'trise' could not be found in 'I0.R2.CS0'.
    WARNING (CMI-2943): Parameter checks have been ignored because the valid value for parameter 'trise' could not be found in 'I0.C8<3>.C1'.
        Further occurrences of this warning will be suppressed.

Convergence achieved in 21 iterations.
DC simulation time: CPU = 5.302 ms, elapsed = 6.42109 ms.
Total time required for dc analysis `dcOp': CPU = 5.769 ms, elapsed = 6.88696 ms, util. = 83.8%.
Time accumulated: CPU = 27.6817 s, elapsed = 29.0934 s.
Peak resident memory used = 215 Mbytes.


Notice from spectre during Monte Carlo analysis `mc1'.
    34 warnings suppressed.

dcOpInfo: writing operating point information to rawfile.

Opening the PSF file ../psf/mc1_separate/049/dcOpInfo.info ...

************************************************
Transient Analysis `tran': time = (0 s -> 40 ms)
************************************************

Opening the PSF file ../psf/mc1_separate/049/tran.tran.tran ...

Notice from spectre during IC analysis, during transient analysis `tran', during Monte Carlo analysis `mc1'.
    Bad pivoting is found during DC analysis. Option dc_pivot_check=yes is recommended for possible improvement of convergence.
Warning from spectre during check, during IC analysis, during transient analysis `tran', during Monte Carlo analysis `mc1'.
    WARNING (CMI-2943): Parameter checks have been ignored because the valid value for parameter 'trise' could not be found in 'C1'.
    WARNING (CMI-2943): Parameter checks have been ignored because the valid value for parameter 'trise' could not be found in 'I0.R2.CM'.
    WARNING (CMI-2943): Parameter checks have been ignored because the valid value for parameter 'trise' could not be found in 'I0.R2.CS1'.
    WARNING (CMI-2943): Parameter checks have been ignored because the valid value for parameter 'trise' could not be found in 'I0.R2.CS0'.
    WARNING (CMI-2943): Parameter checks have been ignored because the valid value for parameter 'trise' could not be found in 'I0.C8<3>.C1'.
        Further occurrences of this warning will be suppressed.

Convergence achieved in 21 iterations.
DC simulation time: CPU = 2.751 ms, elapsed = 2.75207 ms.
Important parameter values:
    start = 0 s
    outputstart = 0 s
    stop = 40 ms
    step = 40 us
    maxstep = 400 us
    ic = all
    useprevic = no
    skipdc = no
    reltol = 10e-06
    abstol(V) = 1 uV
    abstol(I) = 1 pA
    temp = 85 C
    tnom = 27 C
    tempeffects = all
    errpreset = conservative
    method = gear2only
    lteratio = 10
    relref = alllocal
    cmin = 0 F
    gmin = 1 pS
    rabsshort = 1 mOhm


Notice from spectre during transient analysis `tran', during Monte Carlo analysis `mc1'.
    Multithreading is disabled due to the size of the design being too small.


Output and IC/nodeset summary:
                 save   8       (current)
                 save   87      (voltage)

    tran: time = 1.017 ms    (2.54 %), step = 48.84 us     (122 m%)
    tran: time = 3.03 ms     (7.58 %), step = 47.73 us     (119 m%)
    tran: time = 5.044 ms    (12.6 %), step = 46.86 us     (117 m%)
    tran: time = 7.011 ms    (17.5 %), step = 49.44 us     (124 m%)
    tran: time = 9.024 ms    (22.6 %), step = 48.24 us     (121 m%)
    tran: time = 11.04 ms    (27.6 %), step = 47.25 us     (118 m%)
    tran: time = 13 ms       (32.5 %), step = 50 us        (125 m%)
    tran: time = 15.02 ms    (37.5 %), step = 48.79 us     (122 m%)
    tran: time = 17.03 ms    (42.6 %), step = 47.68 us     (119 m%)
    tran: time = 19.04 ms    (47.6 %), step = 46.83 us     (117 m%)
    tran: time = 21.01 ms    (52.5 %), step = 49.38 us     (123 m%)
    tran: time = 23.02 ms    (57.6 %), step = 48.19 us     (120 m%)
    tran: time = 25.04 ms    (62.6 %), step = 47.21 us     (118 m%)
    tran: time = 27 ms       (67.5 %), step = 50 us        (125 m%)
    tran: time = 29.02 ms    (72.5 %), step = 48.73 us     (122 m%)
    tran: time = 31.03 ms    (77.6 %), step = 47.64 us     (119 m%)
    tran: time = 33.04 ms    (82.6 %), step = 46.79 us     (117 m%)
    tran: time = 35.01 ms    (87.5 %), step = 49.32 us     (123 m%)
    tran: time = 37.02 ms    (92.6 %), step = 48.14 us     (120 m%)
    tran: time = 39.04 ms    (97.6 %), step = 47.17 us     (118 m%)
Number of accepted tran steps =             852

Maximum value achieved for any signal of each quantity: 
V: V(S<0>) = 3.3 V
I: I(V0:p) = 6.475 uA
Maximum value of each quantity, excluding Verilog-A modules or dangling current sources:
V: V(vout_filt) = 1.614 V
I: I(V0:p) = 6.475 uA

~~~~~~~~~~~~~~~~~~~~~~~~~~~~~~~~~
Post-Transient Simulation Summary
~~~~~~~~~~~~~~~~~~~~~~~~~~~~~~~~~
   -   To further speed up simulation, consider
          add ++aps on command line
   -   Non-default settings that could significantly slow down simulation
          errpreset = conservative, default moderate
          reltol = 10e-06, default 100e-06 (conservative)
~~~~~~~~~~~~~~~~~~~~~~~~~~~~~~~~~


During simulation, the CPU load for active processors is :
         0 (26.2 %)      1 (65.0 %)      2 (24.8 %)      3 (13.0 %)
         4 (9.7 %)       5 (10.7 %)      6 (8.7 %)       7 (10.8 %)
         8 (82.3 %)      9 (12.7 %)     10 (12.0 %)     11 (16.5 %)
        12 (22.4 %)     13 (15.5 %)     14 (26.6 %)     15 (30.0 %)
        16 (10.9 %)     17 (22.9 %)     18 (50.6 %)     19 (45.9 %)
        20 (22.4 %)     21 (53.8 %)     22 (21.2 %)     23 (67.9 %)
        24 (37.4 %)     25 (41.4 %)     26 (6.7 %)      27 (18.1 %)
        28 (32.1 %)     29 (15.3 %)     30 (19.3 %)     31 (18.6 %)
        32 (13.9 %)     33 (43.0 %)     34 (31.4 %)     35 (20.5 %)
        36 (20.0 %)     37 (25.6 %)     38 (20.1 %)     39 (38.1 %)
        40 (11.3 %)     41 (55.2 %)     42 (29.7 %)     43 (11.8 %)
        44 (3.6 %)      45 (100.0 %)    46 (14.4 %)     47 (20.5 %)
        Total: 1330.4%
Initial condition solution time: CPU = 2.78 ms, elapsed = 2.78187 ms.
Intrinsic tran analysis time:    CPU = 442.835 ms, elapsed = 444.365 ms.
Total time required for tran analysis `tran': CPU = 447.226 ms, elapsed = 449.281 ms, util. = 99.5%.
Time accumulated: CPU = 28.1351 s, elapsed = 29.5512 s.
Peak resident memory used = 215 Mbytes.


Notice from spectre during transient analysis `tran', during Monte Carlo analysis `mc1'.
    34 warnings suppressed.

finalTimeOP: writing operating point information to rawfile.

Opening the PSF file ../psf/mc1_separate/049/finalTimeOP.info ...
modelParameter: writing model parameter values to rawfile.

Opening the PSF file ../psf/mc1_separate/049/modelParameter.info ...
element: writing instance parameter values to rawfile.

Opening the PSF file ../psf/mc1_separate/049/element.info ...
outputParameter: writing output parameter values to rawfile.

Opening the PSF file ../psf/mc1_separate/049/outputParameter.info ...
designParamVals: writing netlist parameters to rawfile.

Opening the PSFASCII file ../psf/mc1_separate/049/designParamVals.info ...
primitives: writing primitives to rawfile.

Opening the PSFASCII file ../psf/mc1_separate/049/primitives.info.primitives ...
subckts: writing subcircuits to rawfile.

Opening the PSFASCII file ../psf/mc1_separate/049/subckts.info.subckts ...
    mc1: iteration = 49            (98 %), step = 1            (2.04 %)
50 100.00% 

*****************************************************************************************
* 
* INFO: AMS_processOption = C35B4C3
* 
* INFO: Valid Modules  PIP VG5 HIRES
* 
*****************************************************************************************


******************
DC Analysis `dcOp'
******************

Opening the PSF file ../psf/mc1_separate/050/dcOp.dc ...
Important parameter values:
    reltol = 100e-06
    abstol(V) = 1 uV
    abstol(I) = 1 pA
    temp = 85 C
    tnom = 27 C
    tempeffects = all
    gmindc = 1 pS
    rabsshort = 1 mOhm

Notice from spectre during DC analysis `dcOp', during Monte Carlo analysis `mc1'.
    Bad pivoting is found during DC analysis. Option dc_pivot_check=yes is recommended for possible improvement of convergence.


Maximum value achieved for any signal of each quantity: 
V: V(S<0>) = 3.3 V
I: I(V0:p) = 6.425 uA
Maximum value of each quantity, excluding Verilog-A modules or dangling current sources:
V: V(vout_filt) = 1.601 V
I: I(V0:p) = 6.425 uA

Warning from spectre during check, during DC analysis `dcOp', during Monte Carlo analysis `mc1'.
    WARNING (CMI-2943): Parameter checks have been ignored because the valid value for parameter 'trise' could not be found in 'C1'.
    WARNING (CMI-2943): Parameter checks have been ignored because the valid value for parameter 'trise' could not be found in 'I0.R2.CM'.
    WARNING (CMI-2943): Parameter checks have been ignored because the valid value for parameter 'trise' could not be found in 'I0.R2.CS1'.
    WARNING (CMI-2943): Parameter checks have been ignored because the valid value for parameter 'trise' could not be found in 'I0.R2.CS0'.
    WARNING (CMI-2943): Parameter checks have been ignored because the valid value for parameter 'trise' could not be found in 'I0.C8<3>.C1'.
        Further occurrences of this warning will be suppressed.

Convergence achieved in 21 iterations.
DC simulation time: CPU = 5.149 ms, elapsed = 6.51097 ms.
Total time required for dc analysis `dcOp': CPU = 5.669 ms, elapsed = 7.03001 ms, util. = 80.6%.
Time accumulated: CPU = 28.175 s, elapsed = 29.6015 s.
Peak resident memory used = 215 Mbytes.


Notice from spectre during Monte Carlo analysis `mc1'.
    34 warnings suppressed.

dcOpInfo: writing operating point information to rawfile.

Opening the PSF file ../psf/mc1_separate/050/dcOpInfo.info ...

************************************************
Transient Analysis `tran': time = (0 s -> 40 ms)
************************************************

Opening the PSF file ../psf/mc1_separate/050/tran.tran.tran ...

Notice from spectre during IC analysis, during transient analysis `tran', during Monte Carlo analysis `mc1'.
    Bad pivoting is found during DC analysis. Option dc_pivot_check=yes is recommended for possible improvement of convergence.
Warning from spectre during check, during IC analysis, during transient analysis `tran', during Monte Carlo analysis `mc1'.
    WARNING (CMI-2943): Parameter checks have been ignored because the valid value for parameter 'trise' could not be found in 'C1'.
    WARNING (CMI-2943): Parameter checks have been ignored because the valid value for parameter 'trise' could not be found in 'I0.R2.CM'.
    WARNING (CMI-2943): Parameter checks have been ignored because the valid value for parameter 'trise' could not be found in 'I0.R2.CS1'.
    WARNING (CMI-2943): Parameter checks have been ignored because the valid value for parameter 'trise' could not be found in 'I0.R2.CS0'.
    WARNING (CMI-2943): Parameter checks have been ignored because the valid value for parameter 'trise' could not be found in 'I0.C8<3>.C1'.
        Further occurrences of this warning will be suppressed.

Convergence achieved in 21 iterations.
DC simulation time: CPU = 2.778 ms, elapsed = 2.77901 ms.
Important parameter values:
    start = 0 s
    outputstart = 0 s
    stop = 40 ms
    step = 40 us
    maxstep = 400 us
    ic = all
    useprevic = no
    skipdc = no
    reltol = 10e-06
    abstol(V) = 1 uV
    abstol(I) = 1 pA
    temp = 85 C
    tnom = 27 C
    tempeffects = all
    errpreset = conservative
    method = gear2only
    lteratio = 10
    relref = alllocal
    cmin = 0 F
    gmin = 1 pS
    rabsshort = 1 mOhm


Notice from spectre during transient analysis `tran', during Monte Carlo analysis `mc1'.
    Multithreading is disabled due to the size of the design being too small.


Output and IC/nodeset summary:
                 save   8       (current)
                 save   87      (voltage)

    tran: time = 1.028 ms    (2.57 %), step = 47.9 us      (120 m%)
    tran: time = 3.042 ms     (7.6 %), step = 46.99 us     (117 m%)
    tran: time = 5.009 ms    (12.5 %), step = 49.64 us     (124 m%)
    tran: time = 7.022 ms    (17.6 %), step = 48.39 us     (121 m%)
    tran: time = 9.036 ms    (22.6 %), step = 47.36 us     (118 m%)
    tran: time = 11 ms       (27.5 %), step = 50 us        (125 m%)
    tran: time = 13.02 ms    (32.5 %), step = 48.9 us      (122 m%)
    tran: time = 15.03 ms    (37.6 %), step = 47.76 us     (119 m%)
    tran: time = 17.04 ms    (42.6 %), step = 46.88 us     (117 m%)
    tran: time = 19.01 ms    (47.5 %), step = 49.45 us     (124 m%)
    tran: time = 21.02 ms    (52.6 %), step = 48.24 us     (121 m%)
    tran: time = 23.04 ms    (57.6 %), step = 47.24 us     (118 m%)
    tran: time = 25 ms       (62.5 %), step = 50 us        (125 m%)
    tran: time = 27.02 ms    (67.5 %), step = 48.74 us     (122 m%)
    tran: time = 29.03 ms    (72.6 %), step = 47.63 us     (119 m%)
    tran: time = 31.05 ms    (77.6 %), step = 46.78 us     (117 m%)
    tran: time = 33.01 ms    (82.5 %), step = 49.28 us     (123 m%)
    tran: time = 35.03 ms    (87.6 %), step = 48.09 us     (120 m%)
    tran: time = 37.04 ms    (92.6 %), step = 47.13 us     (118 m%)
    tran: time = 39.01 ms    (97.5 %), step = 49.88 us     (125 m%)
Number of accepted tran steps =             851

Maximum value achieved for any signal of each quantity: 
V: V(S<0>) = 3.3 V
I: I(V0:p) = 6.425 uA
Maximum value of each quantity, excluding Verilog-A modules or dangling current sources:
V: V(vout_filt) = 1.614 V
I: I(V0:p) = 6.425 uA

~~~~~~~~~~~~~~~~~~~~~~~~~~~~~~~~~
Post-Transient Simulation Summary
~~~~~~~~~~~~~~~~~~~~~~~~~~~~~~~~~
   -   To further speed up simulation, consider
          add ++aps on command line
   -   Non-default settings that could significantly slow down simulation
          errpreset = conservative, default moderate
          reltol = 10e-06, default 100e-06 (conservative)
~~~~~~~~~~~~~~~~~~~~~~~~~~~~~~~~~


During simulation, the CPU load for active processors is :
         0 (27.5 %)      1 (64.0 %)      2 (24.5 %)      3 (12.8 %)
         4 (9.6 %)       5 (10.6 %)      6 (8.6 %)       7 (10.6 %)
         8 (80.9 %)      9 (12.5 %)     10 (11.8 %)     11 (16.2 %)
        12 (22.1 %)     13 (15.4 %)     14 (26.1 %)     15 (31.1 %)
        16 (10.8 %)     17 (24.3 %)     18 (50.6 %)     19 (45.1 %)
        20 (23.7 %)     21 (52.9 %)     22 (20.8 %)     23 (67.6 %)
        24 (37.6 %)     25 (41.5 %)     26 (6.7 %)      27 (18.0 %)
        28 (31.6 %)     29 (15.2 %)     30 (19.0 %)     31 (18.3 %)
        32 (14.0 %)     33 (42.5 %)     34 (31.5 %)     35 (20.7 %)
        36 (19.7 %)     37 (25.3 %)     38 (19.7 %)     39 (37.5 %)
        40 (11.2 %)     41 (54.3 %)     42 (29.2 %)     43 (11.9 %)
        44 (3.6 %)      45 (100.0 %)    46 (14.2 %)     47 (20.2 %)
        Total: 1323.6%
Initial condition solution time: CPU = 2.809 ms, elapsed = 2.81119 ms.
Intrinsic tran analysis time:    CPU = 454.804 ms, elapsed = 456.534 ms.
Total time required for tran analysis `tran': CPU = 459.179 ms, elapsed = 461.339 ms, util. = 99.5%.
Time accumulated: CPU = 28.6407 s, elapsed = 30.0717 s.
Peak resident memory used = 215 Mbytes.


Notice from spectre during transient analysis `tran', during Monte Carlo analysis `mc1'.
    34 warnings suppressed.

finalTimeOP: writing operating point information to rawfile.

Opening the PSF file ../psf/mc1_separate/050/finalTimeOP.info ...
modelParameter: writing model parameter values to rawfile.

Opening the PSF file ../psf/mc1_separate/050/modelParameter.info ...
element: writing instance parameter values to rawfile.

Opening the PSF file ../psf/mc1_separate/050/element.info ...
outputParameter: writing output parameter values to rawfile.

Opening the PSF file ../psf/mc1_separate/050/outputParameter.info ...
designParamVals: writing netlist parameters to rawfile.

Opening the PSFASCII file ../psf/mc1_separate/050/designParamVals.info ...
primitives: writing primitives to rawfile.

Opening the PSFASCII file ../psf/mc1_separate/050/primitives.info.primitives ...
subckts: writing subcircuits to rawfile.

Opening the PSFASCII file ../psf/mc1_separate/050/subckts.info.subckts ...
    mc1: iteration = 50           (100 %), step = 1            (2.04 %)
Total time required for montecarlo analysis `mc1': CPU = 28.2076 s, elapsed = 29.0145 s, util. = 97.2%.
Time accumulated: CPU = 28.6651 s, elapsed = 30.107 s.
Peak resident memory used = 215 Mbytes.

Licensing Information:
Lic Summary:
[09:12:57.286346] Cdslmd servers:3000@lic08.ug.kth.se:29000@lic06.ug.kth.se
[09:12:57.810680] Feature usage summary:
[09:12:57.810682] Virtuoso_Multi_mode_Simulation


Aggregate audit (9:12:57 AM, Thur Apr 16, 2026):
Time used: CPU = 28.7 s, elapsed = 30.1 s, util. = 95.2%.
Time spent in licensing: elapsed = 52.7 ms.
Peak memory used = 215 Mbytes.
Simulation started at: 9:12:27 AM, Thur Apr 16, 2026, ended at: 9:12:57 AM, Thur Apr 16, 2026, with elapsed time (wall clock): 30.1 s.
spectre completes with 0 errors, 527 warnings, and 262 notices.
