
Spectre (R) Circuit Simulator
Version 24.1.0.288.isr5 64bit -- 3 Apr 2025
Copyright (C) 1989-2025 Cadence Design Systems, Inc. All rights reserved worldwide. Cadence and Spectre are registered trademarks of Cadence Design Systems, Inc. All others are the property of their respective holders.

Includes RSA BSAFE(R) Cryptographic or Security Protocol Software from RSA Security, Inc.

User: davidevi   Host: il2244vt26_davidevi   HostID: 11AC2C00   PID: 1026549
Memory  available: 3.0257 TB  physical: 3.2467 TB
Linux   : Rocky Linux release 8.10 (Green Obsidian)
CPU Type: Intel(R) Xeon(R) CPU E7-8857 v2 @ 3.00GHz
        Socket: Processors [Frequency]
        0:       0 [3000.0],  1 [1200.0],  2 [1200.0],  3 [1200.0],  4 [1700.0]
                 5 [2999.9],  6 [2999.9],  7 [1200.0],  8 [1200.0],  9 [1200.0]
                10 [1700.0], 11 [1200.0]
        1:      12 [1200.0], 13 [1200.0], 14 [2800.0], 15 [2600.0], 16 [1200.0]
                17 [1200.0], 18 [1200.0], 19 [1200.0], 20 [3000.0], 21 [1200.0]
                22 [3200.0], 23 [2999.9]
        2:      24 [3399.9], 25 [1200.0], 26 [1200.0], 27 [1200.0], 28 [1200.0]
                29 [3399.9], 30 [1200.0], 31 [1200.0], 32 [1200.0], 33 [1200.0]
                34 [1400.0], 35 [1200.0]
        3:      36 [1200.0], 37 [3429.4], 38 [1200.0], 39 [3600.0], 40 [1200.0]
                41 [2600.0], 42 [1200.0], 43 [1200.0], 44 [2800.0], 45 [2500.0]
                46 [2500.0], 47 [3423.7]
        
System load averages (1min, 5min, 15min) : 28.2 %, 25.5 %, 24.9 %
HPC is enabled


Simulating `input.scs' on il2244vt26_davidevi at 4:52:01 PM, Wed Apr 15, 2026 (process id: 1026549).
Current working directory: /home/davidevi/Desktop/myproject/Sim/VGA/VGA_1_wakeup_tb/adexl/results/data/MonteCarlo.0/14/wakeup/groupRunDataDir/netlist
Command line:
    /opt/tools/cadence/installs/SPECTRE241/tools/bin/spectre -64  \
        input.scs +escchars +log ../psf/spectre.out -format psfbin  \
        +rtsf -raw ../psf +aps +mt +lqtimeout 900 -maxw 5 -maxn 5  \
        +param /opt/pdk/ams/410/spectre/ams_range.lmts -env ade  \
        -ahdllibdir  \
        /home/davidevi/Desktop/myproject/Sim/VGA/VGA_1_wakeup_tb/adexl/results/data/MonteCarlo.0/sharedData/Job459/ahdl/input.ahdlSimDB  \
        +logstatus  \
        +adespetkn=0001089D13A302B663E41FB550AF0DF415A679A322D5069144BF588C12F604E07EF416DC01A319B562BB63D368F02EB945A37AC00BEA2C8A65F97ADA16814F9240AA79D15D9175FF34986BDD0AF002BA50FD7FD707E002A700AC1C841EFF40E20EA979D120F874D3349879D118F874D33498100EDAC8B6E35D47000036AC

Simulation Id: ZjKKRpQaXY58w9t2
Licensing Information:
[16:52:01.121722] Configured Lic search path (24.01-s002): 3000@lic08.ug.kth.se:29000@lic06.ug.kth.se

Licensing Information:
[16:52:01.249211] Periodic Lic check successful

Loading /opt/tools/cadence/installs/SPECTRE241/tools.lnx86/cmi/lib/64bit/5.0/libinfineon_sh.so ...
Loading /opt/tools/cadence/installs/SPECTRE241/tools.lnx86/cmi/lib/64bit/5.0/libphilips_I_sh.so ...
Loading /opt/tools/cadence/installs/SPECTRE241/tools.lnx86/cmi/lib/64bit/5.0/libphilips_sh.so ...
Loading /opt/tools/cadence/installs/SPECTRE241/tools.lnx86/cmi/lib/64bit/5.0/libsparam_sh.so ...
Loading /opt/tools/cadence/installs/SPECTRE241/tools.lnx86/cmi/lib/64bit/5.0/libstmodels_sh.so ...

Warning from spectre.
    WARNING (SPECTRE-691): This CPU processor does not support x86 advanced vector extensions instructions. This may affect math operations and slow down the simulation.

Reading file:  /home/davidevi/Desktop/myproject/Sim/VGA/VGA_1_wakeup_tb/adexl/results/data/MonteCarlo.0/14/wakeup/groupRunDataDir/netlist/input.scs
Reading file:  /opt/pdk/ams/410/spectre/ams_range.lmts

Warning from spectre during read of parameter soft limits file `/opt/pdk/ams/410/spectre/ams_range.lmts', during circuit read-in.
    WARNING (SPECTRE-8360): line 1511: `ac' is an undefined primitive device.
    WARNING (SPECTRE-8360): line 1512: `ac' is an undefined primitive device.
    WARNING (SPECTRE-8360): line 1513: `ac' is an undefined primitive device.
    WARNING (SPECTRE-8360): line 1514: `ac' is an undefined primitive device.
    WARNING (SPECTRE-8360): line 1515: `ac' is an undefined primitive device.
        Further occurrences of this warning will be suppressed.

Reading file:  /opt/tools/cadence/installs/SPECTRE241/tools.lnx86/spectre/etc/configs/spectre.cfg
Reading file:  /opt/pdk/ams/410/spectre/c35/soac/soac.scs
Reading file:  /opt/pdk/ams/410/spectre/c35/soac/processOption.scs
Reading file:  /opt/pdk/ams/410/spectre/c35/soac/process.scs
Reading file:  /opt/pdk/ams/410/spectre/c35/soac/soac.va

Warning from spectre during AHDL read-in.
    WARNING (VACOMP-2435): The environment variable CDS_AHDLCMI_ENABLE is no longer supported. Therefore, the simulator will use the default compiled C code flow.

Reading link:  /opt/tools/cadence/installs/SPECTRE241/tools.lnx86/spectre/etc/ahdl/constants.h
Reading file:  /opt/tools/cadence/installs/SPECTRE241/tools.lnx86/spectre/etc/ahdl/constants.vams
Reading link:  /opt/tools/cadence/installs/SPECTRE241/tools.lnx86/spectre/etc/ahdl/discipline.h
Reading file:  /opt/tools/cadence/installs/SPECTRE241/tools.lnx86/spectre/etc/ahdl/disciplines.vams
Reading file:  /opt/pdk/ams/410/spectre/c35/processOption/C35B4C3.scs
Reading file:  /opt/pdk/ams/410/spectre/c35/soac/cmos53.scs
Reading file:  /opt/pdk/ams/410/spectre/c35/soac/res.scs
Reading file:  /opt/pdk/ams/410/spectre/c35/soac/cap.scs
Reading file:  /opt/pdk/ams/410/spectre/c35/soac/bip.scs
Reading file:  /opt/pdk/ams/410/spectre/c35/soac/ind.scs
Reading file:  /opt/pdk/ams/410/spectre/c35/soac/esddiode.scs
Time for NDB Parsing: CPU = 167.799 ms, elapsed = 328.134 ms.
Time accumulated: CPU = 365.412 ms, elapsed = 328.136 ms.
Peak resident memory used = 175 Mbytes.

Existing shared object for module modn_ahdl is up to date.
Installed compiled interface for modn_ahdl.
Existing shared object for module modp_ahdl is up to date.
Installed compiled interface for modp_ahdl.
Existing shared object for module cpoly_ahdl is up to date.
Installed compiled interface for cpoly_ahdl.
Existing shared object for module rpolyh_ahdl is up to date.
Installed compiled interface for rpolyh_ahdl.
Existing shared object for module bsource_19b458 is up to date.
Installed compiled interface for bsource_19b458.
Time for Elaboration: CPU = 57.591 ms, elapsed = 59.5338 ms.
Time accumulated: CPU = 423.128 ms, elapsed = 387.794 ms.
Peak resident memory used = 188 Mbytes.


Notice from spectre during hierarchy flattening.
    The value 'psf' specified for the 'checklimitdest' option will no longer be supported in future releases. Use 'spectre -h' to see other recommended values for the 'checklimitdest' option.


*****************************************************************************************
* 
* INFO: AMS_processOption = C35B4C3
* 
* INFO: Valid Modules  PIP VG5 HIRES
* 
*****************************************************************************************


Notice from spectre during hierarchy flattening.
    V8: `period' has the unusually large value of 100 s.


Time for EDB Visiting: CPU = 8.666 ms, elapsed = 8.66604 ms.
Time accumulated: CPU = 431.919 ms, elapsed = 396.583 ms.
Peak resident memory used = 191 Mbytes.

Loading /opt/tools/cadence/installs/SPECTRE241/tools.lnx86/mdl/lib/64bit/libSpectreEH_sh.so ...

Warning from spectre during initial setup.
    WARNING (SPECTRE-16460): SOAC_cvarm_vspsub:Specified subcircuit master `cvarm' was not found.
    WARNING (SPECTRE-16462): SOAC_cvarm_vspsub:Error in specification of subcircuit master. Assert is ignored.
    WARNING (SPECTRE-16460): SOAC_cvarm_vbs:Specified subcircuit master `cvarm' was not found.
    WARNING (SPECTRE-16462): SOAC_cvarm_vbs:Error in specification of subcircuit master. Assert is ignored.
    WARNING (SPECTRE-16460): SOAC_cvarm_vgb:Specified subcircuit master `cvarm' was not found.
    WARNING (SPECTRE-16462): SOAC_cvarm_vgb:Error in specification of subcircuit master. Assert is ignored.
    WARNING (SPECTRE-16460): SOAC_cvart_vspsub:Specified subcircuit master `cvart' was not found.
    WARNING (SPECTRE-16462): SOAC_cvart_vspsub:Error in specification of subcircuit master. Assert is ignored.
    WARNING (SPECTRE-16460): SOAC_cvart_vbs:Specified subcircuit master `cvart' was not found.
        Further occurrences of this warning will be suppressed.
    WARNING (SPECTRE-16462): SOAC_cvart_vbs:Error in specification of subcircuit master. Assert is ignored.
        Further occurrences of this warning will be suppressed.
Notice from spectre during topology check.
    Only one connection to the following 54 nodes:
        I0.MN6.psub!
        I0.MN5.psub!
        I0.MN4.psub!
        I0.MN3.psub!
        I0.MN2.psub!
        Further occurrences of this notice will be suppressed.
Notice from spectre during initial setup.
    Multithreading is disabled due to the size of the design being too small.


Netlist title:
        // Point Netlist Generated on: Apr 15 16:52:00 2026


Global user options:
         psfversion = 1.4.0
            vabstol = 1e-06
            iabstol = 1e-12
               temp = -40
           homotopy = 5
              limit = delta
         compatible = spice2
               gmin = 1e-12
             rforce = 1
           maxnotes = 5
           maxwarns = 5
             digits = 5
               cols = 80
             pivrel = 0.001
           sensfile = ../psf/sens.output
     checklimitdest = psf
     enable_pre_ver = yes
      ignorezerovar = yes
               save = allpub
             reltol = 0.0001
               tnom = 27
             scalem = 1
              scale = 1

Scoped user options:

Circuit inventory:
              nodes 88
            bsim3v3 35    
     bsource_19b458 2     
          capacitor 38    
         cpoly_ahdl 17    
            isource 1     
          modn_ahdl 19    
          modp_ahdl 16    
           resistor 1     
        rpolyh_ahdl 2     
            vsource 8     

Analysis and control statement inventory:
               info 7     
         montecarlo 1     
               tran 1     

Output statements:
             .probe 0     
           .measure 0     
               save 0     

Design checks inventory:
          paramtest 55    
             assert 175   


Notice from spectre during initial setup.
    APS enabled.
    1 notice suppressed.
    72 warnings suppressed.

Time for parsing: CPU = 18.379 ms, elapsed = 640.925 ms.
Time accumulated: CPU = 450.406 ms, elapsed = 1.03762 s.
Peak resident memory used = 198 Mbytes.

~~~~~~~~~~~~~~~~~~~~~~
Pre-Simulation Summary
~~~~~~~~~~~~~~~~~~~~~~
   -   (APS) Multi-threading. The recommended number of threads is 1, consider adding +mt=1 on command line.
~~~~~~~~~~~~~~~~~~~~~~

**************************************************
Monte Carlo Analysis `mc1': iteration = (1 -> 100)
**************************************************
Important parameter values:
    seed = 12345
    sampling = lds
    variations = all
    firstrun = 1
    numruns = 100
    nullmfactorcorrelation = no
    donominal = yes
    method = standard

**** Performing nominal run for `mc1'

Notice from spectre during transient analysis `tran', during Monte Carlo analysis `mc1'.
    No checklimit analysis defined for asserts. A default checklimit analysis 'SpectreChecklimitAnal' has been created with all asserts enabled.


***********************************************
Transient Analysis `tran': time = (0 s -> 50 s)
***********************************************

Warning from spectre during check, during IC analysis, during transient analysis `tran', during Monte Carlo analysis `mc1'.
    WARNING (CMI-2943): Parameter checks have been ignored because the valid value for parameter 'trise' could not be found in 'C1'.
    WARNING (CMI-2943): Parameter checks have been ignored because the valid value for parameter 'trise' could not be found in 'I0.R2.CM'.
    WARNING (CMI-2943): Parameter checks have been ignored because the valid value for parameter 'trise' could not be found in 'I0.R2.CS1'.
    WARNING (CMI-2943): Parameter checks have been ignored because the valid value for parameter 'trise' could not be found in 'I0.R2.CS0'.
    WARNING (CMI-2943): Parameter checks have been ignored because the valid value for parameter 'trise' could not be found in 'I0.C3.C1'.
        Further occurrences of this warning will be suppressed.

Convergence achieved in 12 iterations.
DC simulation time: CPU = 3.082 ms, elapsed = 3.20983 ms.

Opening the PSF file ../psf/nom/tran.tran.tran ...
Important parameter values:
    start = 0 s
    outputstart = 0 s
    stop = 50 s
    step = 50 ms
    maxstep = 500 ms
    ic = all
    useprevic = no
    skipdc = no
    reltol = 10e-06
    abstol(V) = 1 uV
    abstol(I) = 1 pA
    temp = -40 C
    tnom = 27 C
    tempeffects = all
    errpreset = conservative
    method = gear2only
    lteratio = 10
    relref = alllocal
    cmin = 0 F
    gmin = 1 pS
    rabsshort = 1 mOhm


Notice from spectre during transient analysis `tran', during Monte Carlo analysis `mc1'.
    Multithreading is disabled due to the size of the design being too small.


Output and IC/nodeset summary:
                 save   8       (current)
                 save   87      (voltage)

    tran: time = 1.292 s     (2.58 %), step = 121.7 ms     (243 m%)
    tran: time = 4.006 s     (8.01 %), step = 313.3 ms     (627 m%)
    tran: time = 6.492 s       (13 %), step = 500 ms          (1 %)
    tran: time = 8.992 s       (18 %), step = 500 ms          (1 %)
    tran: time = 11.49 s       (23 %), step = 500 ms          (1 %)
    tran: time = 13.99 s       (28 %), step = 500 ms          (1 %)
    tran: time = 16.49 s       (33 %), step = 500 ms          (1 %)
    tran: time = 18.99 s       (38 %), step = 500 ms          (1 %)
    tran: time = 21.49 s       (43 %), step = 500 ms          (1 %)
    tran: time = 23.99 s       (48 %), step = 500 ms          (1 %)
    tran: time = 26.49 s       (53 %), step = 500 ms          (1 %)
    tran: time = 28.99 s       (58 %), step = 500 ms          (1 %)
    tran: time = 31.49 s       (63 %), step = 500 ms          (1 %)
    tran: time = 33.99 s       (68 %), step = 500 ms          (1 %)
    tran: time = 36.49 s       (73 %), step = 500 ms          (1 %)
    tran: time = 38.99 s       (78 %), step = 500 ms          (1 %)
    tran: time = 41.49 s       (83 %), step = 500 ms          (1 %)
    tran: time = 43.99 s       (88 %), step = 500 ms          (1 %)
    tran: time = 46.29 s     (92.6 %), step = 87.59 ms     (175 m%)
    tran: time = 48.85 s     (97.7 %), step = 246.8 ms     (494 m%)
Number of accepted tran steps =             659

Maximum value achieved for any signal of each quantity: 
V: V(vout_filt) = 3.3 V
I: I(V8:p) = 6.477 uA

~~~~~~~~~~~~~~~~~~~~~~~~~~~~~~~~~
Post-Transient Simulation Summary
~~~~~~~~~~~~~~~~~~~~~~~~~~~~~~~~~
   -   To further speed up simulation, consider
          add ++aps on command line
   -   Non-default settings that could significantly slow down simulation
          errpreset = conservative, default moderate
          reltol = 10e-06, default 100e-06 (conservative)
~~~~~~~~~~~~~~~~~~~~~~~~~~~~~~~~~


During simulation, the CPU load for active processors is :
         0 (2.2 %)       1 (51.4 %)      2 (3.6 %)       3 (11.5 %)
         4 (6.5 %)       5 (100.0 %)     6 (48.2 %)      7 (2.9 %)
         9 (1.4 %)      10 (2.9 %)      11 (2.9 %)      12 (9.4 %)
        13 (12.2 %)     14 (6.1 %)      15 (36.5 %)     16 (9.6 %)
        17 (4.4 %)      18 (2.9 %)      19 (4.4 %)      20 (47.4 %)
        21 (2.9 %)      22 (60.9 %)     23 (40.0 %)     24 (23.4 %)
        25 (71.0 %)     26 (19.7 %)     27 (3.0 %)      28 (4.4 %)
        29 (100.0 %)    30 (2.9 %)      31 (2.9 %)      32 (3.7 %)
        33 (12.4 %)     34 (15.4 %)     35 (2.2 %)      36 (2.2 %)
        37 (5.8 %)      38 (1.4 %)      39 (91.4 %)     40 (1.4 %)
        41 (4.3 %)      42 (23.2 %)     43 (5.8 %)      44 (1.5 %)
        45 (2.2 %)      46 (1.5 %)      47 (100.0 %)    
        Total: 972.9%
Initial condition solution time: CPU = 3.125 ms, elapsed = 3.25418 ms.
Intrinsic tran analysis time:    CPU = 404.424 ms, elapsed = 405.648 ms.
Total time required for tran analysis `tran': CPU = 490.634 ms, elapsed = 494.915 ms, util. = 99.1%.
Time accumulated: CPU = 967.335 ms, elapsed = 1.56049 s.
Peak resident memory used = 209 Mbytes.


Notice from spectre during transient analysis `tran', during Monte Carlo analysis `mc1'.
    34 warnings suppressed.

finalTimeOP: writing operating point information to rawfile.

Opening the PSF file ../psf/nom/finalTimeOP.info ...
modelParameter: writing model parameter values to rawfile.

Opening the PSF file ../psf/nom/modelParameter.info ...
element: writing instance parameter values to rawfile.

Opening the PSF file ../psf/nom/element.info ...
outputParameter: writing output parameter values to rawfile.

Opening the PSF file ../psf/nom/outputParameter.info ...
designParamVals: writing netlist parameters to rawfile.

Opening the PSFASCII file ../psf/nom/designParamVals.info ...
primitives: writing primitives to rawfile.

Opening the PSFASCII file ../psf/nom/primitives.info.primitives ...
subckts: writing subcircuits to rawfile.

Opening the PSFASCII file ../psf/nom/subckts.info.subckts ...
Opening iteration number and data-directory mapping file:  /home/davidevi/Desktop/myproject/Sim/VGA/VGA_1_wakeup_tb/adexl/results/data/MonteCarlo.0/14/wakeup/groupRunDataDir/netlist/../psf/mc1.mapping

Statistical parameters:
    Defined process parameters: 629
    Defined mismatch parameters (subckt based): 86
    Non-referenced mismatch parameters: 80
    Number of random variables: 718
    Gaussian truncation for process parameters: 4.00 sigma
    Gaussian truncation for mismatch parameters: 4.00 sigma


Opening the PSF file ../psf/mc1_tran.montecarlo ...

Opening the PSF file ../psf/mc1_finalTimeOP.montecarlo ...

Opening the PSF file ../psf/mc1_modelParameter.montecarlo ...

Opening the PSF file ../psf/mc1_element.montecarlo ...

Opening the PSF file ../psf/mc1_outputParameter.montecarlo ...

Opening the PSF file ../psf/mc1_designParamVals.montecarlo ...

Opening the PSF file ../psf/mc1_primitives.montecarlo ...

Opening the PSF file ../psf/mc1_subckts.montecarlo ...

**** Performing monte carlo loop for `mc1'

1   0.00% 

*****************************************************************************************
* 
* INFO: AMS_processOption = C35B4C3
* 
* INFO: Valid Modules  PIP VG5 HIRES
* 
*****************************************************************************************


Notice from spectre at iteration = 1 during Monte Carlo analysis `mc1'.
    V8: `period' has the unusually large value of 100 s.


***********************************************
Transient Analysis `tran': time = (0 s -> 50 s)
***********************************************

Opening the PSF file ../psf/mc1_separate/001/tran.tran.tran ...

Warning from spectre at iteration = 1 during check, during IC analysis, during transient analysis `tran', during Monte Carlo analysis `mc1'.
    WARNING (CMI-2943): Parameter checks have been ignored because the valid value for parameter 'trise' could not be found in 'C1'.
    WARNING (CMI-2943): Parameter checks have been ignored because the valid value for parameter 'trise' could not be found in 'I0.R2.CM'.
    WARNING (CMI-2943): Parameter checks have been ignored because the valid value for parameter 'trise' could not be found in 'I0.R2.CS1'.
    WARNING (CMI-2943): Parameter checks have been ignored because the valid value for parameter 'trise' could not be found in 'I0.R2.CS0'.
    WARNING (CMI-2943): Parameter checks have been ignored because the valid value for parameter 'trise' could not be found in 'I0.C3.C1'.
        Further occurrences of this warning will be suppressed.

Convergence achieved in 12 iterations.
DC simulation time: CPU = 2.846 ms, elapsed = 2.846 ms.
Important parameter values:
    start = 0 s
    outputstart = 0 s
    stop = 50 s
    step = 50 ms
    maxstep = 500 ms
    ic = all
    useprevic = no
    skipdc = no
    reltol = 10e-06
    abstol(V) = 1 uV
    abstol(I) = 1 pA
    temp = -40 C
    tnom = 27 C
    tempeffects = all
    errpreset = conservative
    method = gear2only
    lteratio = 10
    relref = alllocal
    cmin = 0 F
    gmin = 1 pS
    rabsshort = 1 mOhm


Notice from spectre at iteration = 1 during transient analysis `tran', during Monte Carlo analysis `mc1'.
    Multithreading is disabled due to the size of the design being too small.


Output and IC/nodeset summary:
                 save   8       (current)
                 save   87      (voltage)

    tran: time = 1.336 s     (2.67 %), step = 138.2 ms     (276 m%)
    tran: time = 4.058 s     (8.12 %), step = 329 ms       (658 m%)
    tran: time = 6.64 s      (13.3 %), step = 500 ms          (1 %)
    tran: time = 9.14 s      (18.3 %), step = 500 ms          (1 %)
    tran: time = 11.64 s     (23.3 %), step = 500 ms          (1 %)
    tran: time = 14.14 s     (28.3 %), step = 500 ms          (1 %)
    tran: time = 16.64 s     (33.3 %), step = 500 ms          (1 %)
    tran: time = 19.14 s     (38.3 %), step = 500 ms          (1 %)
    tran: time = 21.64 s     (43.3 %), step = 500 ms          (1 %)
    tran: time = 24.14 s     (48.3 %), step = 500 ms          (1 %)
    tran: time = 26.64 s     (53.3 %), step = 500 ms          (1 %)
    tran: time = 29.14 s     (58.3 %), step = 500 ms          (1 %)
    tran: time = 31.64 s     (63.3 %), step = 500 ms          (1 %)
    tran: time = 34.14 s     (68.3 %), step = 500 ms          (1 %)
    tran: time = 36.64 s     (73.3 %), step = 500 ms          (1 %)
    tran: time = 39.14 s     (78.3 %), step = 500 ms          (1 %)
    tran: time = 41.64 s     (83.3 %), step = 500 ms          (1 %)
    tran: time = 44.14 s     (88.3 %), step = 500 ms          (1 %)
    tran: time = 46.39 s     (92.8 %), step = 354.4 ms     (709 m%)
    tran: time = 48.77 s     (97.5 %), step = 47.25 ms    (94.5 m%)
Number of accepted tran steps =             654

Maximum value achieved for any signal of each quantity: 
V: V(vout_filt) = 3.3 V
I: I(V8:p) = 6.379 uA

~~~~~~~~~~~~~~~~~~~~~~~~~~~~~~~~~
Post-Transient Simulation Summary
~~~~~~~~~~~~~~~~~~~~~~~~~~~~~~~~~
   -   To further speed up simulation, consider
          add ++aps on command line
   -   Non-default settings that could significantly slow down simulation
          errpreset = conservative, default moderate
          reltol = 10e-06, default 100e-06 (conservative)
~~~~~~~~~~~~~~~~~~~~~~~~~~~~~~~~~


During simulation, the CPU load for active processors is :
         0 (2.1 %)       1 (47.0 %)      2 (2.6 %)       3 (14.5 %)
         4 (5.0 %)       5 (100.0 %)     6 (52.2 %)      7 (2.5 %)
         8 (1.0 %)       9 (2.0 %)      10 (2.5 %)      11 (3.0 %)
        12 (10.5 %)     13 (37.3 %)     14 (4.7 %)      15 (25.4 %)
        16 (6.6 %)      17 (3.6 %)      18 (3.1 %)      19 (3.6 %)
        20 (60.1 %)     21 (2.6 %)      22 (42.9 %)     23 (27.8 %)
        24 (17.3 %)     25 (50.0 %)     26 (14.2 %)     27 (33.2 %)
        28 (11.1 %)     29 (100.0 %)    30 (3.6 %)      31 (3.6 %)
        32 (4.1 %)      33 (10.7 %)     34 (16.8 %)     35 (2.6 %)
        36 (4.0 %)      37 (4.1 %)      38 (1.0 %)      39 (91.5 %)
        40 (2.5 %)      41 (4.0 %)      42 (18.6 %)     43 (5.0 %)
        44 (1.0 %)      45 (2.0 %)      46 (1.5 %)      47 (100.0 %)
        Total: 965.0%
Initial condition solution time: CPU = 2.895 ms, elapsed = 2.89798 ms.
Intrinsic tran analysis time:    CPU = 400.622 ms, elapsed = 401.879 ms.
Total time required for tran analysis `tran': CPU = 406.421 ms, elapsed = 408.33 ms, util. = 99.5%.
Time accumulated: CPU = 1.45629 s, elapsed = 2.06568 s.
Peak resident memory used = 213 Mbytes.


Notice from spectre during transient analysis `tran', during Monte Carlo analysis `mc1'.
    34 warnings suppressed.

finalTimeOP: writing operating point information to rawfile.

Opening the PSF file ../psf/mc1_separate/001/finalTimeOP.info ...
modelParameter: writing model parameter values to rawfile.

Opening the PSF file ../psf/mc1_separate/001/modelParameter.info ...
element: writing instance parameter values to rawfile.

Opening the PSF file ../psf/mc1_separate/001/element.info ...
outputParameter: writing output parameter values to rawfile.

Opening the PSF file ../psf/mc1_separate/001/outputParameter.info ...
designParamVals: writing netlist parameters to rawfile.

Opening the PSFASCII file ../psf/mc1_separate/001/designParamVals.info ...
primitives: writing primitives to rawfile.

Opening the PSFASCII file ../psf/mc1_separate/001/primitives.info.primitives ...
subckts: writing subcircuits to rawfile.

Opening the PSFASCII file ../psf/mc1_separate/001/subckts.info.subckts ...
2   1.01% 

*****************************************************************************************
* 
* INFO: AMS_processOption = C35B4C3
* 
* INFO: Valid Modules  PIP VG5 HIRES
* 
*****************************************************************************************


Notice from spectre during Monte Carlo analysis `mc1'.
    V8: `period' has the unusually large value of 100 s.


***********************************************
Transient Analysis `tran': time = (0 s -> 50 s)
***********************************************

Opening the PSF file ../psf/mc1_separate/002/tran.tran.tran ...

Warning from spectre during check, during IC analysis, during transient analysis `tran', during Monte Carlo analysis `mc1'.
    WARNING (CMI-2943): Parameter checks have been ignored because the valid value for parameter 'trise' could not be found in 'C1'.
    WARNING (CMI-2943): Parameter checks have been ignored because the valid value for parameter 'trise' could not be found in 'I0.R2.CM'.
    WARNING (CMI-2943): Parameter checks have been ignored because the valid value for parameter 'trise' could not be found in 'I0.R2.CS1'.
    WARNING (CMI-2943): Parameter checks have been ignored because the valid value for parameter 'trise' could not be found in 'I0.R2.CS0'.
    WARNING (CMI-2943): Parameter checks have been ignored because the valid value for parameter 'trise' could not be found in 'I0.C3.C1'.
        Further occurrences of this warning will be suppressed.

Convergence achieved in 12 iterations.
DC simulation time: CPU = 2.338 ms, elapsed = 2.34008 ms.
Important parameter values:
    start = 0 s
    outputstart = 0 s
    stop = 50 s
    step = 50 ms
    maxstep = 500 ms
    ic = all
    useprevic = no
    skipdc = no
    reltol = 10e-06
    abstol(V) = 1 uV
    abstol(I) = 1 pA
    temp = -40 C
    tnom = 27 C
    tempeffects = all
    errpreset = conservative
    method = gear2only
    lteratio = 10
    relref = alllocal
    cmin = 0 F
    gmin = 1 pS
    rabsshort = 1 mOhm


Notice from spectre during transient analysis `tran', during Monte Carlo analysis `mc1'.
    Multithreading is disabled due to the size of the design being too small.


Output and IC/nodeset summary:
                 save   8       (current)
                 save   87      (voltage)

    tran: time = 1.28 s      (2.56 %), step = 128.8 ms     (258 m%)
    tran: time = 3.815 s     (7.63 %), step = 306.3 ms     (613 m%)
    tran: time = 6.739 s     (13.5 %), step = 500 ms          (1 %)
    tran: time = 9.239 s     (18.5 %), step = 500 ms          (1 %)
    tran: time = 11.74 s     (23.5 %), step = 500 ms          (1 %)
    tran: time = 14.24 s     (28.5 %), step = 500 ms          (1 %)
    tran: time = 16.74 s     (33.5 %), step = 500 ms          (1 %)
    tran: time = 19.24 s     (38.5 %), step = 500 ms          (1 %)
    tran: time = 21.74 s     (43.5 %), step = 500 ms          (1 %)
    tran: time = 24.24 s     (48.5 %), step = 500 ms          (1 %)
    tran: time = 26.74 s     (53.5 %), step = 500 ms          (1 %)
    tran: time = 29.24 s     (58.5 %), step = 500 ms          (1 %)
    tran: time = 31.74 s     (63.5 %), step = 500 ms          (1 %)
    tran: time = 34.24 s     (68.5 %), step = 500 ms          (1 %)
    tran: time = 36.74 s     (73.5 %), step = 500 ms          (1 %)
    tran: time = 39.24 s     (78.5 %), step = 500 ms          (1 %)
    tran: time = 41.74 s     (83.5 %), step = 500 ms          (1 %)
    tran: time = 44.24 s     (88.5 %), step = 500 ms          (1 %)
    tran: time = 46.46 s     (92.9 %), step = 238 ms       (476 m%)
    tran: time = 48.77 s     (97.5 %), step = 70.06 ms     (140 m%)
Number of accepted tran steps =             661

Maximum value achieved for any signal of each quantity: 
V: V(vout_filt) = 3.3 V
I: I(V8:p) = 6.422 uA

~~~~~~~~~~~~~~~~~~~~~~~~~~~~~~~~~
Post-Transient Simulation Summary
~~~~~~~~~~~~~~~~~~~~~~~~~~~~~~~~~
   -   To further speed up simulation, consider
          add ++aps on command line
   -   Non-default settings that could significantly slow down simulation
          errpreset = conservative, default moderate
          reltol = 10e-06, default 100e-06 (conservative)
~~~~~~~~~~~~~~~~~~~~~~~~~~~~~~~~~


During simulation, the CPU load for active processors is :
         0 (2.1 %)       1 (52.4 %)      2 (2.1 %)       3 (13.4 %)
         4 (4.1 %)       5 (100.0 %)     6 (46.7 %)      7 (2.5 %)
         8 (1.2 %)       9 (3.3 %)      10 (2.0 %)      11 (2.9 %)
        12 (12.6 %)     13 (40.5 %)     14 (4.6 %)      15 (21.0 %)
        16 (5.4 %)      17 (3.3 %)      18 (2.5 %)      19 (3.7 %)
        20 (67.6 %)     21 (3.8 %)      22 (44.5 %)     23 (24.2 %)
        24 (18.6 %)     25 (48.3 %)     26 (12.3 %)     27 (33.2 %)
        28 (9.4 %)      29 (100.0 %)    30 (3.7 %)      31 (3.3 %)
        32 (9.5 %)      33 (9.9 %)      34 (16.9 %)     35 (5.8 %)
        36 (4.9 %)      37 (4.1 %)      38 (1.2 %)      39 (93.1 %)
        40 (2.9 %)      41 (6.1 %)      42 (15.5 %)     43 (4.1 %)
        44 (2.4 %)      45 (5.3 %)      46 (2.5 %)      47 (100.0 %)
        Total: 979.6%
Initial condition solution time: CPU = 2.378 ms, elapsed = 2.38109 ms.
Intrinsic tran analysis time:    CPU = 409.626 ms, elapsed = 410.57 ms.
Total time required for tran analysis `tran': CPU = 414.43 ms, elapsed = 415.903 ms, util. = 99.6%.
Time accumulated: CPU = 1.91095 s, elapsed = 2.53033 s.
Peak resident memory used = 213 Mbytes.


Notice from spectre during transient analysis `tran', during Monte Carlo analysis `mc1'.
    34 warnings suppressed.

finalTimeOP: writing operating point information to rawfile.

Opening the PSF file ../psf/mc1_separate/002/finalTimeOP.info ...
modelParameter: writing model parameter values to rawfile.

Opening the PSF file ../psf/mc1_separate/002/modelParameter.info ...
element: writing instance parameter values to rawfile.

Opening the PSF file ../psf/mc1_separate/002/element.info ...
outputParameter: writing output parameter values to rawfile.

Opening the PSF file ../psf/mc1_separate/002/outputParameter.info ...
designParamVals: writing netlist parameters to rawfile.

Opening the PSFASCII file ../psf/mc1_separate/002/designParamVals.info ...
primitives: writing primitives to rawfile.

Opening the PSFASCII file ../psf/mc1_separate/002/primitives.info.primitives ...
subckts: writing subcircuits to rawfile.

Opening the PSFASCII file ../psf/mc1_separate/002/subckts.info.subckts ...
3   2.02% 

*****************************************************************************************
* 
* INFO: AMS_processOption = C35B4C3
* 
* INFO: Valid Modules  PIP VG5 HIRES
* 
*****************************************************************************************


Notice from spectre during Monte Carlo analysis `mc1'.
    V8: `period' has the unusually large value of 100 s.


***********************************************
Transient Analysis `tran': time = (0 s -> 50 s)
***********************************************

Opening the PSF file ../psf/mc1_separate/003/tran.tran.tran ...

Warning from spectre during check, during IC analysis, during transient analysis `tran', during Monte Carlo analysis `mc1'.
    WARNING (CMI-2943): Parameter checks have been ignored because the valid value for parameter 'trise' could not be found in 'C1'.
    WARNING (CMI-2943): Parameter checks have been ignored because the valid value for parameter 'trise' could not be found in 'I0.R2.CM'.
    WARNING (CMI-2943): Parameter checks have been ignored because the valid value for parameter 'trise' could not be found in 'I0.R2.CS1'.
    WARNING (CMI-2943): Parameter checks have been ignored because the valid value for parameter 'trise' could not be found in 'I0.R2.CS0'.
    WARNING (CMI-2943): Parameter checks have been ignored because the valid value for parameter 'trise' could not be found in 'I0.C3.C1'.
        Further occurrences of this warning will be suppressed.

Convergence achieved in 12 iterations.
DC simulation time: CPU = 2.649 ms, elapsed = 2.64907 ms.
Important parameter values:
    start = 0 s
    outputstart = 0 s
    stop = 50 s
    step = 50 ms
    maxstep = 500 ms
    ic = all
    useprevic = no
    skipdc = no
    reltol = 10e-06
    abstol(V) = 1 uV
    abstol(I) = 1 pA
    temp = -40 C
    tnom = 27 C
    tempeffects = all
    errpreset = conservative
    method = gear2only
    lteratio = 10
    relref = alllocal
    cmin = 0 F
    gmin = 1 pS
    rabsshort = 1 mOhm


Notice from spectre during transient analysis `tran', during Monte Carlo analysis `mc1'.
    Multithreading is disabled due to the size of the design being too small.


Output and IC/nodeset summary:
                 save   8       (current)
                 save   87      (voltage)

    tran: time = 1.306 s     (2.61 %), step = 110.9 ms     (222 m%)
    tran: time = 3.797 s     (7.59 %), step = 288.5 ms     (577 m%)
    tran: time = 6.589 s     (13.2 %), step = 500 ms          (1 %)
    tran: time = 9.089 s     (18.2 %), step = 500 ms          (1 %)
    tran: time = 11.59 s     (23.2 %), step = 500 ms          (1 %)
    tran: time = 14.09 s     (28.2 %), step = 500 ms          (1 %)
    tran: time = 16.59 s     (33.2 %), step = 500 ms          (1 %)
    tran: time = 19.09 s     (38.2 %), step = 500 ms          (1 %)
    tran: time = 21.59 s     (43.2 %), step = 500 ms          (1 %)
    tran: time = 24.09 s     (48.2 %), step = 500 ms          (1 %)
    tran: time = 26.59 s     (53.2 %), step = 500 ms          (1 %)
    tran: time = 29.09 s     (58.2 %), step = 500 ms          (1 %)
    tran: time = 31.59 s     (63.2 %), step = 500 ms          (1 %)
    tran: time = 34.09 s     (68.2 %), step = 500 ms          (1 %)
    tran: time = 36.59 s     (73.2 %), step = 500 ms          (1 %)
    tran: time = 39.09 s     (78.2 %), step = 500 ms          (1 %)
    tran: time = 41.59 s     (83.2 %), step = 500 ms          (1 %)
    tran: time = 43.81 s     (87.6 %), step = 177.1 ms     (354 m%)
    tran: time = 46.27 s     (92.5 %), step = 141.7 ms     (283 m%)
    tran: time = 49.2 s      (98.4 %), step = 500 ms          (1 %)
Number of accepted tran steps =             664

Maximum value achieved for any signal of each quantity: 
V: V(vout_filt) = 3.3 V
I: I(V8:p) = 6.304 uA

~~~~~~~~~~~~~~~~~~~~~~~~~~~~~~~~~
Post-Transient Simulation Summary
~~~~~~~~~~~~~~~~~~~~~~~~~~~~~~~~~
   -   To further speed up simulation, consider
          add ++aps on command line
   -   Non-default settings that could significantly slow down simulation
          errpreset = conservative, default moderate
          reltol = 10e-06, default 100e-06 (conservative)
~~~~~~~~~~~~~~~~~~~~~~~~~~~~~~~~~


During simulation, the CPU load for active processors is :
         0 (2.5 %)       1 (47.8 %)      2 (2.1 %)       3 (12.0 %)
         4 (4.8 %)       5 (100.0 %)     6 (52.2 %)      7 (2.1 %)
         8 (1.4 %)       9 (3.1 %)      10 (2.7 %)      11 (3.1 %)
        12 (22.8 %)     13 (50.0 %)     14 (4.2 %)      15 (18.3 %)
        16 (5.9 %)      17 (3.8 %)      18 (3.5 %)      19 (3.5 %)
        20 (72.3 %)     21 (3.8 %)      22 (43.2 %)     23 (20.4 %)
        24 (16.3 %)     25 (41.3 %)     26 (10.7 %)     27 (28.6 %)
        28 (8.6 %)      29 (100.0 %)    30 (5.9 %)      31 (3.1 %)
        32 (8.3 %)      33 (19.1 %)     34 (17.3 %)     35 (7.3 %)
        36 (4.2 %)      37 (4.5 %)      38 (1.7 %)      39 (93.2 %)
        40 (4.1 %)      41 (5.5 %)      42 (13.7 %)     43 (6.2 %)
        44 (2.4 %)      45 (5.1 %)      46 (2.4 %)      47 (100.0 %)
        Total: 995.1%
Initial condition solution time: CPU = 2.708 ms, elapsed = 2.70987 ms.
Intrinsic tran analysis time:    CPU = 412.847 ms, elapsed = 414.419 ms.
Total time required for tran analysis `tran': CPU = 418.664 ms, elapsed = 420.813 ms, util. = 99.5%.
Time accumulated: CPU = 2.37057 s, elapsed = 3.00168 s.
Peak resident memory used = 213 Mbytes.


Notice from spectre during transient analysis `tran', during Monte Carlo analysis `mc1'.
    34 warnings suppressed.

finalTimeOP: writing operating point information to rawfile.

Opening the PSF file ../psf/mc1_separate/003/finalTimeOP.info ...
modelParameter: writing model parameter values to rawfile.

Opening the PSF file ../psf/mc1_separate/003/modelParameter.info ...
element: writing instance parameter values to rawfile.

Opening the PSF file ../psf/mc1_separate/003/element.info ...
outputParameter: writing output parameter values to rawfile.

Opening the PSF file ../psf/mc1_separate/003/outputParameter.info ...
designParamVals: writing netlist parameters to rawfile.

Opening the PSFASCII file ../psf/mc1_separate/003/designParamVals.info ...
primitives: writing primitives to rawfile.

Opening the PSFASCII file ../psf/mc1_separate/003/primitives.info.primitives ...
subckts: writing subcircuits to rawfile.

Opening the PSFASCII file ../psf/mc1_separate/003/subckts.info.subckts ...
4   3.03% 

*****************************************************************************************
* 
* INFO: AMS_processOption = C35B4C3
* 
* INFO: Valid Modules  PIP VG5 HIRES
* 
*****************************************************************************************


Notice from spectre during Monte Carlo analysis `mc1'.
    V8: `period' has the unusually large value of 100 s.


***********************************************
Transient Analysis `tran': time = (0 s -> 50 s)
***********************************************

Opening the PSF file ../psf/mc1_separate/004/tran.tran.tran ...

Warning from spectre during check, during IC analysis, during transient analysis `tran', during Monte Carlo analysis `mc1'.
    WARNING (CMI-2943): Parameter checks have been ignored because the valid value for parameter 'trise' could not be found in 'C1'.
    WARNING (CMI-2943): Parameter checks have been ignored because the valid value for parameter 'trise' could not be found in 'I0.R2.CM'.
    WARNING (CMI-2943): Parameter checks have been ignored because the valid value for parameter 'trise' could not be found in 'I0.R2.CS1'.
    WARNING (CMI-2943): Parameter checks have been ignored because the valid value for parameter 'trise' could not be found in 'I0.R2.CS0'.
    WARNING (CMI-2943): Parameter checks have been ignored because the valid value for parameter 'trise' could not be found in 'I0.C3.C1'.
        Further occurrences of this warning will be suppressed.

Convergence achieved in 12 iterations.
DC simulation time: CPU = 2.584 ms, elapsed = 2.59185 ms.
Important parameter values:
    start = 0 s
    outputstart = 0 s
    stop = 50 s
    step = 50 ms
    maxstep = 500 ms
    ic = all
    useprevic = no
    skipdc = no
    reltol = 10e-06
    abstol(V) = 1 uV
    abstol(I) = 1 pA
    temp = -40 C
    tnom = 27 C
    tempeffects = all
    errpreset = conservative
    method = gear2only
    lteratio = 10
    relref = alllocal
    cmin = 0 F
    gmin = 1 pS
    rabsshort = 1 mOhm


Notice from spectre during transient analysis `tran', during Monte Carlo analysis `mc1'.
    Multithreading is disabled due to the size of the design being too small.


Output and IC/nodeset summary:
                 save   8       (current)
                 save   87      (voltage)

    tran: time = 1.325 s     (2.65 %), step = 110.2 ms     (220 m%)
    tran: time = 3.806 s     (7.61 %), step = 287.8 ms     (576 m%)
    tran: time = 6.594 s     (13.2 %), step = 499.5 ms     (999 m%)
    tran: time = 9.094 s     (18.2 %), step = 500 ms          (1 %)
    tran: time = 11.59 s     (23.2 %), step = 500 ms          (1 %)
    tran: time = 14.09 s     (28.2 %), step = 500 ms          (1 %)
    tran: time = 16.59 s     (33.2 %), step = 500 ms          (1 %)
    tran: time = 19.09 s     (38.2 %), step = 500 ms          (1 %)
    tran: time = 21.59 s     (43.2 %), step = 500 ms          (1 %)
    tran: time = 24.09 s     (48.2 %), step = 500 ms          (1 %)
    tran: time = 26.59 s     (53.2 %), step = 500 ms          (1 %)
    tran: time = 29.09 s     (58.2 %), step = 500 ms          (1 %)
    tran: time = 31.59 s     (63.2 %), step = 500 ms          (1 %)
    tran: time = 34.09 s     (68.2 %), step = 500 ms          (1 %)
    tran: time = 36.59 s     (73.2 %), step = 500 ms          (1 %)
    tran: time = 39.09 s     (78.2 %), step = 500 ms          (1 %)
    tran: time = 41.58 s     (83.2 %), step = 481.5 ms     (963 m%)
    tran: time = 43.79 s     (87.6 %), step = 67.92 ms     (136 m%)
    tran: time = 46.48 s       (93 %), step = 292.6 ms     (585 m%)
    tran: time = 48.81 s     (97.6 %), step = 500 ms          (1 %)
Number of accepted tran steps =             671

Maximum value achieved for any signal of each quantity: 
V: V(vout_filt) = 3.3 V
I: I(V8:p) = 6.601 uA

~~~~~~~~~~~~~~~~~~~~~~~~~~~~~~~~~
Post-Transient Simulation Summary
~~~~~~~~~~~~~~~~~~~~~~~~~~~~~~~~~
   -   To further speed up simulation, consider
          add ++aps on command line
   -   Non-default settings that could significantly slow down simulation
          errpreset = conservative, default moderate
          reltol = 10e-06, default 100e-06 (conservative)
~~~~~~~~~~~~~~~~~~~~~~~~~~~~~~~~~


During simulation, the CPU load for active processors is :
         0 (2.7 %)       1 (41.6 %)      2 (2.7 %)       3 (11.2 %)
         4 (4.7 %)       5 (100.0 %)     6 (58.4 %)      7 (10.1 %)
         8 (1.5 %)       9 (3.6 %)      10 (3.0 %)      11 (4.1 %)
        12 (24.6 %)     13 (51.3 %)     14 (4.5 %)      15 (15.8 %)
        16 (15.2 %)     17 (16.0 %)     18 (3.3 %)      19 (3.3 %)
        20 (76.0 %)     21 (5.4 %)      22 (37.5 %)     23 (17.5 %)
        24 (19.7 %)     25 (35.9 %)     26 (9.9 %)      27 (24.6 %)
        28 (7.4 %)      29 (100.0 %)    30 (5.1 %)      31 (3.6 %)
        32 (7.5 %)      33 (16.7 %)     34 (17.6 %)     35 (6.9 %)
        36 (3.6 %)      37 (3.9 %)      38 (4.7 %)      39 (84.1 %)
        40 (3.9 %)      41 (14.8 %)     42 (13.6 %)     43 (5.4 %)
        44 (3.0 %)      45 (5.0 %)      46 (3.6 %)      47 (100.0 %)
        Total: 1014.4%
Initial condition solution time: CPU = 2.626 ms, elapsed = 2.635 ms.
Intrinsic tran analysis time:    CPU = 418.323 ms, elapsed = 419.609 ms.
Total time required for tran analysis `tran': CPU = 423.573 ms, elapsed = 425.366 ms, util. = 99.6%.
Time accumulated: CPU = 2.8345 s, elapsed = 3.4769 s.
Peak resident memory used = 214 Mbytes.


Notice from spectre during transient analysis `tran', during Monte Carlo analysis `mc1'.
    34 warnings suppressed.

finalTimeOP: writing operating point information to rawfile.

Opening the PSF file ../psf/mc1_separate/004/finalTimeOP.info ...
modelParameter: writing model parameter values to rawfile.

Opening the PSF file ../psf/mc1_separate/004/modelParameter.info ...
element: writing instance parameter values to rawfile.

Opening the PSF file ../psf/mc1_separate/004/element.info ...
outputParameter: writing output parameter values to rawfile.

Opening the PSF file ../psf/mc1_separate/004/outputParameter.info ...
designParamVals: writing netlist parameters to rawfile.

Opening the PSFASCII file ../psf/mc1_separate/004/designParamVals.info ...
primitives: writing primitives to rawfile.

Opening the PSFASCII file ../psf/mc1_separate/004/primitives.info.primitives ...
subckts: writing subcircuits to rawfile.

Opening the PSFASCII file ../psf/mc1_separate/004/subckts.info.subckts ...
    mc1: iteration = 4           (3.03 %), step = 1            (1.01 %)
5   4.04% 

*****************************************************************************************
* 
* INFO: AMS_processOption = C35B4C3
* 
* INFO: Valid Modules  PIP VG5 HIRES
* 
*****************************************************************************************


Notice from spectre during Monte Carlo analysis `mc1'.
    V8: `period' has the unusually large value of 100 s.


***********************************************
Transient Analysis `tran': time = (0 s -> 50 s)
***********************************************

Opening the PSF file ../psf/mc1_separate/005/tran.tran.tran ...

Warning from spectre during check, during IC analysis, during transient analysis `tran', during Monte Carlo analysis `mc1'.
    WARNING (CMI-2943): Parameter checks have been ignored because the valid value for parameter 'trise' could not be found in 'C1'.
    WARNING (CMI-2943): Parameter checks have been ignored because the valid value for parameter 'trise' could not be found in 'I0.R2.CM'.
    WARNING (CMI-2943): Parameter checks have been ignored because the valid value for parameter 'trise' could not be found in 'I0.R2.CS1'.
    WARNING (CMI-2943): Parameter checks have been ignored because the valid value for parameter 'trise' could not be found in 'I0.R2.CS0'.
    WARNING (CMI-2943): Parameter checks have been ignored because the valid value for parameter 'trise' could not be found in 'I0.C3.C1'.
        Further occurrences of this warning will be suppressed.

Convergence achieved in 12 iterations.
DC simulation time: CPU = 2.355 ms, elapsed = 2.35605 ms.
Important parameter values:
    start = 0 s
    outputstart = 0 s
    stop = 50 s
    step = 50 ms
    maxstep = 500 ms
    ic = all
    useprevic = no
    skipdc = no
    reltol = 10e-06
    abstol(V) = 1 uV
    abstol(I) = 1 pA
    temp = -40 C
    tnom = 27 C
    tempeffects = all
    errpreset = conservative
    method = gear2only
    lteratio = 10
    relref = alllocal
    cmin = 0 F
    gmin = 1 pS
    rabsshort = 1 mOhm


Notice from spectre during transient analysis `tran', during Monte Carlo analysis `mc1'.
    Multithreading is disabled due to the size of the design being too small.


Output and IC/nodeset summary:
                 save   8       (current)
                 save   87      (voltage)

    tran: time = 1.272 s     (2.54 %), step = 126.5 ms     (253 m%)
    tran: time = 3.763 s     (7.53 %), step = 301 ms       (602 m%)
    tran: time = 6.644 s     (13.3 %), step = 500 ms          (1 %)
    tran: time = 9.144 s     (18.3 %), step = 500 ms          (1 %)
    tran: time = 11.64 s     (23.3 %), step = 500 ms          (1 %)
    tran: time = 14.14 s     (28.3 %), step = 500 ms          (1 %)
    tran: time = 16.64 s     (33.3 %), step = 500 ms          (1 %)
    tran: time = 19.14 s     (38.3 %), step = 500 ms          (1 %)
    tran: time = 21.64 s     (43.3 %), step = 500 ms          (1 %)
    tran: time = 24.14 s     (48.3 %), step = 500 ms          (1 %)
    tran: time = 26.64 s     (53.3 %), step = 500 ms          (1 %)
    tran: time = 29.14 s     (58.3 %), step = 500 ms          (1 %)
    tran: time = 31.64 s     (63.3 %), step = 500 ms          (1 %)
    tran: time = 34.14 s     (68.3 %), step = 500 ms          (1 %)
    tran: time = 36.64 s     (73.3 %), step = 500 ms          (1 %)
    tran: time = 39.14 s     (78.3 %), step = 500 ms          (1 %)
    tran: time = 41.64 s     (83.3 %), step = 500 ms          (1 %)
    tran: time = 44.14 s     (88.3 %), step = 500 ms          (1 %)
    tran: time = 46.33 s     (92.7 %), step = 231 ms       (462 m%)
    tran: time = 48.85 s     (97.7 %), step = 108.5 ms     (217 m%)
Number of accepted tran steps =             661

Maximum value achieved for any signal of each quantity: 
V: V(vout_filt) = 3.3 V
I: I(V8:p) = 6.495 uA

~~~~~~~~~~~~~~~~~~~~~~~~~~~~~~~~~
Post-Transient Simulation Summary
~~~~~~~~~~~~~~~~~~~~~~~~~~~~~~~~~
   -   To further speed up simulation, consider
          add ++aps on command line
   -   Non-default settings that could significantly slow down simulation
          errpreset = conservative, default moderate
          reltol = 10e-06, default 100e-06 (conservative)
~~~~~~~~~~~~~~~~~~~~~~~~~~~~~~~~~


During simulation, the CPU load for active processors is :
         0 (2.9 %)       1 (37.0 %)      2 (2.6 %)       3 (11.4 %)
         4 (4.2 %)       5 (100.0 %)     6 (62.9 %)      7 (18.1 %)
         8 (1.6 %)       9 (5.7 %)      10 (3.4 %)      11 (3.7 %)
        12 (22.7 %)     13 (46.1 %)     14 (4.5 %)      15 (15.2 %)
        16 (25.3 %)     17 (25.0 %)     18 (2.9 %)      19 (3.2 %)
        20 (67.4 %)     21 (5.0 %)      22 (33.1 %)     23 (27.0 %)
        24 (25.5 %)     25 (32.0 %)     26 (9.2 %)      27 (22.8 %)
        28 (6.5 %)      29 (100.0 %)    30 (4.7 %)      31 (3.4 %)
        32 (7.1 %)      33 (15.2 %)     34 (19.9 %)     35 (6.3 %)
        36 (5.7 %)      37 (3.4 %)      38 (6.5 %)      39 (74.4 %)
        40 (3.7 %)      41 (25.1 %)     42 (13.2 %)     43 (5.0 %)
        44 (2.9 %)      45 (4.4 %)      46 (4.7 %)      47 (100.0 %)
        Total: 1032.6%
Initial condition solution time: CPU = 2.395 ms, elapsed = 2.39611 ms.
Intrinsic tran analysis time:    CPU = 409.086 ms, elapsed = 410.598 ms.
Total time required for tran analysis `tran': CPU = 413.944 ms, elapsed = 415.98 ms, util. = 99.5%.
Time accumulated: CPU = 3.28834 s, elapsed = 3.9426 s.
Peak resident memory used = 214 Mbytes.


Notice from spectre during transient analysis `tran', during Monte Carlo analysis `mc1'.
    34 warnings suppressed.

finalTimeOP: writing operating point information to rawfile.

Opening the PSF file ../psf/mc1_separate/005/finalTimeOP.info ...
modelParameter: writing model parameter values to rawfile.

Opening the PSF file ../psf/mc1_separate/005/modelParameter.info ...
element: writing instance parameter values to rawfile.

Opening the PSF file ../psf/mc1_separate/005/element.info ...
outputParameter: writing output parameter values to rawfile.

Opening the PSF file ../psf/mc1_separate/005/outputParameter.info ...
designParamVals: writing netlist parameters to rawfile.

Opening the PSFASCII file ../psf/mc1_separate/005/designParamVals.info ...
primitives: writing primitives to rawfile.

Opening the PSFASCII file ../psf/mc1_separate/005/primitives.info.primitives ...
subckts: writing subcircuits to rawfile.

Opening the PSFASCII file ../psf/mc1_separate/005/subckts.info.subckts ...
    mc1: iteration = 5           (4.04 %), step = 1            (1.01 %)
6   5.05% 

*****************************************************************************************
* 
* INFO: AMS_processOption = C35B4C3
* 
* INFO: Valid Modules  PIP VG5 HIRES
* 
*****************************************************************************************


Notice from spectre during Monte Carlo analysis `mc1'.
    V8: `period' has the unusually large value of 100 s.


***********************************************
Transient Analysis `tran': time = (0 s -> 50 s)
***********************************************

Opening the PSF file ../psf/mc1_separate/006/tran.tran.tran ...

Warning from spectre during check, during IC analysis, during transient analysis `tran', during Monte Carlo analysis `mc1'.
    WARNING (CMI-2943): Parameter checks have been ignored because the valid value for parameter 'trise' could not be found in 'C1'.
    WARNING (CMI-2943): Parameter checks have been ignored because the valid value for parameter 'trise' could not be found in 'I0.R2.CM'.
    WARNING (CMI-2943): Parameter checks have been ignored because the valid value for parameter 'trise' could not be found in 'I0.R2.CS1'.
    WARNING (CMI-2943): Parameter checks have been ignored because the valid value for parameter 'trise' could not be found in 'I0.R2.CS0'.
    WARNING (CMI-2943): Parameter checks have been ignored because the valid value for parameter 'trise' could not be found in 'I0.C3.C1'.
        Further occurrences of this warning will be suppressed.

Convergence achieved in 12 iterations.
DC simulation time: CPU = 2.723 ms, elapsed = 2.72298 ms.
Important parameter values:
    start = 0 s
    outputstart = 0 s
    stop = 50 s
    step = 50 ms
    maxstep = 500 ms
    ic = all
    useprevic = no
    skipdc = no
    reltol = 10e-06
    abstol(V) = 1 uV
    abstol(I) = 1 pA
    temp = -40 C
    tnom = 27 C
    tempeffects = all
    errpreset = conservative
    method = gear2only
    lteratio = 10
    relref = alllocal
    cmin = 0 F
    gmin = 1 pS
    rabsshort = 1 mOhm


Notice from spectre during transient analysis `tran', during Monte Carlo analysis `mc1'.
    Multithreading is disabled due to the size of the design being too small.


Output and IC/nodeset summary:
                 save   8       (current)
                 save   87      (voltage)

    tran: time = 1.26 s      (2.52 %), step = 115 ms       (230 m%)
    tran: time = 3.828 s     (7.66 %), step = 296.5 ms     (593 m%)
    tran: time = 6.679 s     (13.4 %), step = 500 ms          (1 %)
    tran: time = 9.179 s     (18.4 %), step = 500 ms          (1 %)
    tran: time = 11.68 s     (23.4 %), step = 500 ms          (1 %)
    tran: time = 14.18 s     (28.4 %), step = 500 ms          (1 %)
    tran: time = 16.68 s     (33.4 %), step = 500 ms          (1 %)
    tran: time = 19.18 s     (38.4 %), step = 500 ms          (1 %)
    tran: time = 21.68 s     (43.4 %), step = 500 ms          (1 %)
    tran: time = 24.18 s     (48.4 %), step = 500 ms          (1 %)
    tran: time = 26.68 s     (53.4 %), step = 500 ms          (1 %)
    tran: time = 29.18 s     (58.4 %), step = 500 ms          (1 %)
    tran: time = 31.68 s     (63.4 %), step = 500 ms          (1 %)
    tran: time = 34.18 s     (68.4 %), step = 500 ms          (1 %)
    tran: time = 36.68 s     (73.4 %), step = 500 ms          (1 %)
    tran: time = 39.18 s     (78.4 %), step = 500 ms          (1 %)
    tran: time = 41.68 s     (83.4 %), step = 500 ms          (1 %)
    tran: time = 44.01 s       (88 %), step = 382.7 ms     (765 m%)
    tran: time = 46.25 s     (92.5 %), step = 21.52 ms      (43 m%)
    tran: time = 49.17 s     (98.3 %), step = 477.7 ms     (955 m%)
Number of accepted tran steps =             664

Maximum value achieved for any signal of each quantity: 
V: V(vout_filt) = 3.3 V
I: I(V8:p) = 6.534 uA

~~~~~~~~~~~~~~~~~~~~~~~~~~~~~~~~~
Post-Transient Simulation Summary
~~~~~~~~~~~~~~~~~~~~~~~~~~~~~~~~~
   -   To further speed up simulation, consider
          add ++aps on command line
   -   Non-default settings that could significantly slow down simulation
          errpreset = conservative, default moderate
          reltol = 10e-06, default 100e-06 (conservative)
~~~~~~~~~~~~~~~~~~~~~~~~~~~~~~~~~


During simulation, the CPU load for active processors is :
         0 (3.1 %)       1 (33.3 %)      2 (3.1 %)       3 (10.6 %)
         4 (4.2 %)       5 (100.0 %)     6 (66.7 %)      7 (16.1 %)
         8 (1.9 %)       9 (16.2 %)     10 (4.6 %)      11 (3.7 %)
        12 (20.6 %)     13 (41.6 %)     14 (4.3 %)      15 (15.7 %)
        16 (27.3 %)     17 (33.2 %)     18 (3.3 %)      19 (3.5 %)
        20 (69.8 %)     21 (9.1 %)      22 (30.9 %)     23 (26.6 %)
        24 (23.2 %)     25 (28.5 %)     26 (8.2 %)      27 (20.3 %)
        28 (5.8 %)      29 (100.0 %)    30 (4.4 %)      31 (3.3 %)
        32 (6.3 %)      33 (13.6 %)     34 (28.8 %)     35 (5.8 %)
        36 (5.3 %)      37 (3.7 %)      38 (6.5 %)      39 (75.6 %)
        40 (4.9 %)      41 (23.3 %)     42 (12.2 %)     43 (4.7 %)
        44 (3.0 %)      45 (5.3 %)      46 (4.4 %)      47 (100.0 %)
        Total: 1046.7%
Initial condition solution time: CPU = 2.78 ms, elapsed = 2.78115 ms.
Intrinsic tran analysis time:    CPU = 413.717 ms, elapsed = 415.108 ms.
Total time required for tran analysis `tran': CPU = 419.367 ms, elapsed = 421.36 ms, util. = 99.5%.
Time accumulated: CPU = 3.75319 s, elapsed = 4.41999 s.
Peak resident memory used = 214 Mbytes.


Notice from spectre during transient analysis `tran', during Monte Carlo analysis `mc1'.
    34 warnings suppressed.

finalTimeOP: writing operating point information to rawfile.

Opening the PSF file ../psf/mc1_separate/006/finalTimeOP.info ...
modelParameter: writing model parameter values to rawfile.

Opening the PSF file ../psf/mc1_separate/006/modelParameter.info ...
element: writing instance parameter values to rawfile.

Opening the PSF file ../psf/mc1_separate/006/element.info ...
outputParameter: writing output parameter values to rawfile.

Opening the PSF file ../psf/mc1_separate/006/outputParameter.info ...
designParamVals: writing netlist parameters to rawfile.

Opening the PSFASCII file ../psf/mc1_separate/006/designParamVals.info ...
primitives: writing primitives to rawfile.

Opening the PSFASCII file ../psf/mc1_separate/006/primitives.info.primitives ...
subckts: writing subcircuits to rawfile.

Opening the PSFASCII file ../psf/mc1_separate/006/subckts.info.subckts ...
    mc1: iteration = 6           (5.05 %), step = 1            (1.01 %)
7   6.06% 

*****************************************************************************************
* 
* INFO: AMS_processOption = C35B4C3
* 
* INFO: Valid Modules  PIP VG5 HIRES
* 
*****************************************************************************************


Notice from spectre during Monte Carlo analysis `mc1'.
    V8: `period' has the unusually large value of 100 s.


***********************************************
Transient Analysis `tran': time = (0 s -> 50 s)
***********************************************

Opening the PSF file ../psf/mc1_separate/007/tran.tran.tran ...

Warning from spectre during check, during IC analysis, during transient analysis `tran', during Monte Carlo analysis `mc1'.
    WARNING (CMI-2943): Parameter checks have been ignored because the valid value for parameter 'trise' could not be found in 'C1'.
    WARNING (CMI-2943): Parameter checks have been ignored because the valid value for parameter 'trise' could not be found in 'I0.R2.CM'.
    WARNING (CMI-2943): Parameter checks have been ignored because the valid value for parameter 'trise' could not be found in 'I0.R2.CS1'.
    WARNING (CMI-2943): Parameter checks have been ignored because the valid value for parameter 'trise' could not be found in 'I0.R2.CS0'.
    WARNING (CMI-2943): Parameter checks have been ignored because the valid value for parameter 'trise' could not be found in 'I0.C3.C1'.
        Further occurrences of this warning will be suppressed.

Convergence achieved in 12 iterations.
DC simulation time: CPU = 2.602 ms, elapsed = 2.60305 ms.
Important parameter values:
    start = 0 s
    outputstart = 0 s
    stop = 50 s
    step = 50 ms
    maxstep = 500 ms
    ic = all
    useprevic = no
    skipdc = no
    reltol = 10e-06
    abstol(V) = 1 uV
    abstol(I) = 1 pA
    temp = -40 C
    tnom = 27 C
    tempeffects = all
    errpreset = conservative
    method = gear2only
    lteratio = 10
    relref = alllocal
    cmin = 0 F
    gmin = 1 pS
    rabsshort = 1 mOhm


Notice from spectre during transient analysis `tran', during Monte Carlo analysis `mc1'.
    Multithreading is disabled due to the size of the design being too small.


Output and IC/nodeset summary:
                 save   8       (current)
                 save   87      (voltage)

    tran: time = 1.353 s     (2.71 %), step = 128.1 ms     (256 m%)
    tran: time = 3.882 s     (7.76 %), step = 306.2 ms     (612 m%)
    tran: time = 6.308 s     (12.6 %), step = 487.5 ms     (975 m%)
    tran: time = 8.808 s     (17.6 %), step = 500 ms          (1 %)
    tran: time = 11.31 s     (22.6 %), step = 500 ms          (1 %)
    tran: time = 13.81 s     (27.6 %), step = 500 ms          (1 %)
    tran: time = 16.31 s     (32.6 %), step = 500 ms          (1 %)
    tran: time = 18.81 s     (37.6 %), step = 500 ms          (1 %)
    tran: time = 21.31 s     (42.6 %), step = 500 ms          (1 %)
    tran: time = 23.81 s     (47.6 %), step = 500 ms          (1 %)
    tran: time = 26.31 s     (52.6 %), step = 500 ms          (1 %)
    tran: time = 28.81 s     (57.6 %), step = 500 ms          (1 %)
    tran: time = 31.31 s     (62.6 %), step = 500 ms          (1 %)
    tran: time = 33.81 s     (67.6 %), step = 500 ms          (1 %)
    tran: time = 36.31 s     (72.6 %), step = 500 ms          (1 %)
    tran: time = 38.81 s     (77.6 %), step = 500 ms          (1 %)
    tran: time = 41.31 s     (82.6 %), step = 500 ms          (1 %)
    tran: time = 43.81 s     (87.6 %), step = 500 ms          (1 %)
    tran: time = 46.29 s     (92.6 %), step = 153.9 ms     (308 m%)
    tran: time = 48.8 s      (97.6 %), step = 174.5 ms     (349 m%)
Number of accepted tran steps =             659

Maximum value achieved for any signal of each quantity: 
V: V(vout_filt) = 3.3 V
I: I(V8:p) = 6.447 uA

~~~~~~~~~~~~~~~~~~~~~~~~~~~~~~~~~
Post-Transient Simulation Summary
~~~~~~~~~~~~~~~~~~~~~~~~~~~~~~~~~
   -   To further speed up simulation, consider
          add ++aps on command line
   -   Non-default settings that could significantly slow down simulation
          errpreset = conservative, default moderate
          reltol = 10e-06, default 100e-06 (conservative)
~~~~~~~~~~~~~~~~~~~~~~~~~~~~~~~~~


During simulation, the CPU load for active processors is :
         0 (5.6 %)       1 (30.5 %)      2 (3.6 %)       3 (10.0 %)
         4 (4.4 %)       5 (100.0 %)     6 (69.8 %)      7 (14.7 %)
         8 (2.7 %)       9 (23.9 %)     10 (4.2 %)      11 (4.8 %)
        12 (18.9 %)     13 (38.0 %)     14 (4.5 %)      15 (16.5 %)
        16 (25.1 %)     17 (39.0 %)     18 (3.6 %)      19 (12.2 %)
        20 (63.8 %)     21 (18.0 %)     22 (28.7 %)     23 (24.6 %)
        24 (21.7 %)     25 (26.1 %)     26 (8.0 %)      27 (18.4 %)
        28 (5.3 %)      29 (100.0 %)    30 (4.2 %)      31 (3.4 %)
        32 (5.9 %)      33 (12.4 %)     34 (35.0 %)     35 (5.9 %)
        36 (5.2 %)      37 (3.8 %)      38 (6.1 %)      39 (77.8 %)
        40 (6.5 %)      41 (21.4 %)     42 (12.3 %)     43 (4.4 %)
        44 (2.7 %)      45 (5.0 %)      46 (4.0 %)      47 (100.0 %)
        Total: 1062.9%
Initial condition solution time: CPU = 2.66 ms, elapsed = 2.66194 ms.
Intrinsic tran analysis time:    CPU = 411.417 ms, elapsed = 412.5 ms.
Total time required for tran analysis `tran': CPU = 416.623 ms, elapsed = 418.379 ms, util. = 99.6%.
Time accumulated: CPU = 4.21128 s, elapsed = 4.88959 s.
Peak resident memory used = 214 Mbytes.


Notice from spectre during transient analysis `tran', during Monte Carlo analysis `mc1'.
    34 warnings suppressed.

finalTimeOP: writing operating point information to rawfile.

Opening the PSF file ../psf/mc1_separate/007/finalTimeOP.info ...
modelParameter: writing model parameter values to rawfile.

Opening the PSF file ../psf/mc1_separate/007/modelParameter.info ...
element: writing instance parameter values to rawfile.

Opening the PSF file ../psf/mc1_separate/007/element.info ...
outputParameter: writing output parameter values to rawfile.

Opening the PSF file ../psf/mc1_separate/007/outputParameter.info ...
designParamVals: writing netlist parameters to rawfile.

Opening the PSFASCII file ../psf/mc1_separate/007/designParamVals.info ...
primitives: writing primitives to rawfile.

Opening the PSFASCII file ../psf/mc1_separate/007/primitives.info.primitives ...
subckts: writing subcircuits to rawfile.

Opening the PSFASCII file ../psf/mc1_separate/007/subckts.info.subckts ...
    mc1: iteration = 7           (6.06 %), step = 1            (1.01 %)
8   7.07% 

*****************************************************************************************
* 
* INFO: AMS_processOption = C35B4C3
* 
* INFO: Valid Modules  PIP VG5 HIRES
* 
*****************************************************************************************


Notice from spectre during Monte Carlo analysis `mc1'.
    V8: `period' has the unusually large value of 100 s.


***********************************************
Transient Analysis `tran': time = (0 s -> 50 s)
***********************************************

Opening the PSF file ../psf/mc1_separate/008/tran.tran.tran ...

Warning from spectre during check, during IC analysis, during transient analysis `tran', during Monte Carlo analysis `mc1'.
    WARNING (CMI-2943): Parameter checks have been ignored because the valid value for parameter 'trise' could not be found in 'C1'.
    WARNING (CMI-2943): Parameter checks have been ignored because the valid value for parameter 'trise' could not be found in 'I0.R2.CM'.
    WARNING (CMI-2943): Parameter checks have been ignored because the valid value for parameter 'trise' could not be found in 'I0.R2.CS1'.
    WARNING (CMI-2943): Parameter checks have been ignored because the valid value for parameter 'trise' could not be found in 'I0.R2.CS0'.
    WARNING (CMI-2943): Parameter checks have been ignored because the valid value for parameter 'trise' could not be found in 'I0.C3.C1'.
        Further occurrences of this warning will be suppressed.

Convergence achieved in 12 iterations.
DC simulation time: CPU = 2.545 ms, elapsed = 2.54607 ms.
Important parameter values:
    start = 0 s
    outputstart = 0 s
    stop = 50 s
    step = 50 ms
    maxstep = 500 ms
    ic = all
    useprevic = no
    skipdc = no
    reltol = 10e-06
    abstol(V) = 1 uV
    abstol(I) = 1 pA
    temp = -40 C
    tnom = 27 C
    tempeffects = all
    errpreset = conservative
    method = gear2only
    lteratio = 10
    relref = alllocal
    cmin = 0 F
    gmin = 1 pS
    rabsshort = 1 mOhm


Notice from spectre during transient analysis `tran', during Monte Carlo analysis `mc1'.
    Multithreading is disabled due to the size of the design being too small.


Output and IC/nodeset summary:
                 save   8       (current)
                 save   87      (voltage)

    tran: time = 1.293 s     (2.59 %), step = 128.8 ms     (258 m%)
    tran: time = 3.829 s     (7.66 %), step = 306.5 ms     (613 m%)
    tran: time = 6.254 s     (12.5 %), step = 487.2 ms     (974 m%)
    tran: time = 8.754 s     (17.5 %), step = 500 ms          (1 %)
    tran: time = 11.25 s     (22.5 %), step = 500 ms          (1 %)
    tran: time = 13.75 s     (27.5 %), step = 500 ms          (1 %)
    tran: time = 16.25 s     (32.5 %), step = 500 ms          (1 %)
    tran: time = 18.75 s     (37.5 %), step = 500 ms          (1 %)
    tran: time = 21.25 s     (42.5 %), step = 500 ms          (1 %)
    tran: time = 23.75 s     (47.5 %), step = 500 ms          (1 %)
    tran: time = 26.25 s     (52.5 %), step = 500 ms          (1 %)
    tran: time = 28.75 s     (57.5 %), step = 500 ms          (1 %)
    tran: time = 31.25 s     (62.5 %), step = 500 ms          (1 %)
    tran: time = 33.75 s     (67.5 %), step = 500 ms          (1 %)
    tran: time = 36.25 s     (72.5 %), step = 500 ms          (1 %)
    tran: time = 38.75 s     (77.5 %), step = 500 ms          (1 %)
    tran: time = 41.25 s     (82.5 %), step = 500 ms          (1 %)
    tran: time = 43.75 s     (87.5 %), step = 500 ms          (1 %)
    tran: time = 46.41 s     (92.8 %), step = 226.1 ms     (452 m%)
    tran: time = 48.81 s     (97.6 %), step = 97.9 ms      (196 m%)
Number of accepted tran steps =             659

Maximum value achieved for any signal of each quantity: 
V: V(vout_filt) = 3.3 V
I: I(V8:p) = 6.482 uA

~~~~~~~~~~~~~~~~~~~~~~~~~~~~~~~~~
Post-Transient Simulation Summary
~~~~~~~~~~~~~~~~~~~~~~~~~~~~~~~~~
   -   To further speed up simulation, consider
          add ++aps on command line
   -   Non-default settings that could significantly slow down simulation
          errpreset = conservative, default moderate
          reltol = 10e-06, default 100e-06 (conservative)
~~~~~~~~~~~~~~~~~~~~~~~~~~~~~~~~~


During simulation, the CPU load for active processors is :
         0 (11.3 %)      1 (28.7 %)      2 (3.7 %)       3 (10.7 %)
         4 (10.7 %)      5 (100.0 %)     6 (72.1 %)      7 (14.0 %)
         8 (3.5 %)       9 (30.0 %)     10 (5.0 %)      11 (5.0 %)
        12 (17.8 %)     13 (35.7 %)     14 (4.1 %)      15 (16.9 %)
        16 (22.9 %)     17 (44.2 %)     18 (3.5 %)      19 (19.8 %)
        20 (58.5 %)     21 (24.6 %)     22 (26.4 %)     23 (22.7 %)
        24 (20.2 %)     25 (24.9 %)     26 (7.5 %)      27 (17.6 %)
        28 (5.2 %)      29 (100.0 %)    30 (3.9 %)      31 (3.6 %)
        32 (5.8 %)      33 (11.5 %)     34 (40.8 %)     35 (5.4 %)
        36 (5.5 %)      37 (3.7 %)      38 (7.3 %)      39 (73.5 %)
        40 (6.8 %)      41 (26.3 %)     42 (11.6 %)     43 (5.4 %)
        44 (2.7 %)      45 (4.6 %)      46 (4.0 %)      47 (100.0 %)
        Total: 1089.2%
Initial condition solution time: CPU = 2.586 ms, elapsed = 2.5878 ms.
Intrinsic tran analysis time:    CPU = 410.168 ms, elapsed = 411.563 ms.
Total time required for tran analysis `tran': CPU = 415.5 ms, elapsed = 417.467 ms, util. = 99.5%.
Time accumulated: CPU = 4.66704 s, elapsed = 5.35628 s.
Peak resident memory used = 214 Mbytes.


Notice from spectre during transient analysis `tran', during Monte Carlo analysis `mc1'.
    34 warnings suppressed.

finalTimeOP: writing operating point information to rawfile.

Opening the PSF file ../psf/mc1_separate/008/finalTimeOP.info ...
modelParameter: writing model parameter values to rawfile.

Opening the PSF file ../psf/mc1_separate/008/modelParameter.info ...
element: writing instance parameter values to rawfile.

Opening the PSF file ../psf/mc1_separate/008/element.info ...
outputParameter: writing output parameter values to rawfile.

Opening the PSF file ../psf/mc1_separate/008/outputParameter.info ...
designParamVals: writing netlist parameters to rawfile.

Opening the PSFASCII file ../psf/mc1_separate/008/designParamVals.info ...
primitives: writing primitives to rawfile.

Opening the PSFASCII file ../psf/mc1_separate/008/primitives.info.primitives ...
subckts: writing subcircuits to rawfile.

Opening the PSFASCII file ../psf/mc1_separate/008/subckts.info.subckts ...
    mc1: iteration = 8           (7.07 %), step = 1            (1.01 %)
9   8.08% 

*****************************************************************************************
* 
* INFO: AMS_processOption = C35B4C3
* 
* INFO: Valid Modules  PIP VG5 HIRES
* 
*****************************************************************************************


Notice from spectre during Monte Carlo analysis `mc1'.
    V8: `period' has the unusually large value of 100 s.


***********************************************
Transient Analysis `tran': time = (0 s -> 50 s)
***********************************************

Opening the PSF file ../psf/mc1_separate/009/tran.tran.tran ...

Warning from spectre during check, during IC analysis, during transient analysis `tran', during Monte Carlo analysis `mc1'.
    WARNING (CMI-2943): Parameter checks have been ignored because the valid value for parameter 'trise' could not be found in 'C1'.
    WARNING (CMI-2943): Parameter checks have been ignored because the valid value for parameter 'trise' could not be found in 'I0.R2.CM'.
    WARNING (CMI-2943): Parameter checks have been ignored because the valid value for parameter 'trise' could not be found in 'I0.R2.CS1'.
    WARNING (CMI-2943): Parameter checks have been ignored because the valid value for parameter 'trise' could not be found in 'I0.R2.CS0'.
    WARNING (CMI-2943): Parameter checks have been ignored because the valid value for parameter 'trise' could not be found in 'I0.C3.C1'.
        Further occurrences of this warning will be suppressed.

Convergence achieved in 12 iterations.
DC simulation time: CPU = 2.551 ms, elapsed = 2.55203 ms.
Important parameter values:
    start = 0 s
    outputstart = 0 s
    stop = 50 s
    step = 50 ms
    maxstep = 500 ms
    ic = all
    useprevic = no
    skipdc = no
    reltol = 10e-06
    abstol(V) = 1 uV
    abstol(I) = 1 pA
    temp = -40 C
    tnom = 27 C
    tempeffects = all
    errpreset = conservative
    method = gear2only
    lteratio = 10
    relref = alllocal
    cmin = 0 F
    gmin = 1 pS
    rabsshort = 1 mOhm


Notice from spectre during transient analysis `tran', during Monte Carlo analysis `mc1'.
    Multithreading is disabled due to the size of the design being too small.


Output and IC/nodeset summary:
                 save   8       (current)
                 save   87      (voltage)

    tran: time = 1.252 s      (2.5 %), step = 141.1 ms     (282 m%)
    tran: time = 4.022 s     (8.04 %), step = 334.3 ms     (669 m%)
    tran: time = 6.637 s     (13.3 %), step = 500 ms          (1 %)
    tran: time = 9.137 s     (18.3 %), step = 500 ms          (1 %)
    tran: time = 11.64 s     (23.3 %), step = 500 ms          (1 %)
    tran: time = 14.14 s     (28.3 %), step = 500 ms          (1 %)
    tran: time = 16.64 s     (33.3 %), step = 500 ms          (1 %)
    tran: time = 19.14 s     (38.3 %), step = 500 ms          (1 %)
    tran: time = 21.64 s     (43.3 %), step = 500 ms          (1 %)
    tran: time = 24.14 s     (48.3 %), step = 500 ms          (1 %)
    tran: time = 26.64 s     (53.3 %), step = 500 ms          (1 %)
    tran: time = 29.14 s     (58.3 %), step = 500 ms          (1 %)
    tran: time = 31.64 s     (63.3 %), step = 500 ms          (1 %)
    tran: time = 34.14 s     (68.3 %), step = 500 ms          (1 %)
    tran: time = 36.64 s     (73.3 %), step = 500 ms          (1 %)
    tran: time = 39.14 s     (78.3 %), step = 500 ms          (1 %)
    tran: time = 41.64 s     (83.3 %), step = 500 ms          (1 %)
    tran: time = 44.14 s     (88.3 %), step = 500 ms          (1 %)
    tran: time = 46.57 s     (93.1 %), step = 436.3 ms     (873 m%)
    tran: time = 48.76 s     (97.5 %), step = 16.89 ms    (33.8 m%)
Number of accepted tran steps =             651

Maximum value achieved for any signal of each quantity: 
V: V(vout_filt) = 3.3 V
I: I(V8:p) = 6.31 uA

~~~~~~~~~~~~~~~~~~~~~~~~~~~~~~~~~
Post-Transient Simulation Summary
~~~~~~~~~~~~~~~~~~~~~~~~~~~~~~~~~
   -   To further speed up simulation, consider
          add ++aps on command line
   -   Non-default settings that could significantly slow down simulation
          errpreset = conservative, default moderate
          reltol = 10e-06, default 100e-06 (conservative)
~~~~~~~~~~~~~~~~~~~~~~~~~~~~~~~~~


During simulation, the CPU load for active processors is :
         0 (16.5 %)      1 (26.5 %)      2 (3.7 %)       3 (11.6 %)
         4 (17.9 %)      5 (100.0 %)     6 (74.1 %)      7 (13.1 %)
         8 (3.4 %)       9 (35.7 %)     10 (6.0 %)      11 (5.1 %)
        12 (16.6 %)     13 (32.9 %)     14 (3.8 %)      15 (17.0 %)
        16 (21.1 %)     17 (48.5 %)     18 (3.4 %)      19 (26.1 %)
        20 (54.0 %)     21 (30.6 %)     22 (24.5 %)     23 (21.0 %)
        24 (18.6 %)     25 (22.9 %)     26 (7.7 %)      27 (16.6 %)
        28 (4.8 %)      29 (100.0 %)    30 (3.9 %)      31 (3.7 %)
        32 (5.7 %)      33 (11.3 %)     34 (45.4 %)     35 (5.1 %)
        36 (5.3 %)      37 (3.7 %)      38 (8.1 %)      39 (71.0 %)
        40 (10.0 %)     41 (28.7 %)     42 (11.8 %)     43 (4.9 %)
        44 (2.8 %)      45 (4.2 %)      46 (3.9 %)      47 (100.0 %)
        Total: 1113.2%
Initial condition solution time: CPU = 2.592 ms, elapsed = 2.59399 ms.
Intrinsic tran analysis time:    CPU = 405.171 ms, elapsed = 406.697 ms.
Total time required for tran analysis `tran': CPU = 410.041 ms, elapsed = 412.088 ms, util. = 99.5%.
Time accumulated: CPU = 5.11688 s, elapsed = 5.81731 s.
Peak resident memory used = 214 Mbytes.


Notice from spectre during transient analysis `tran', during Monte Carlo analysis `mc1'.
    34 warnings suppressed.

finalTimeOP: writing operating point information to rawfile.

Opening the PSF file ../psf/mc1_separate/009/finalTimeOP.info ...
modelParameter: writing model parameter values to rawfile.

Opening the PSF file ../psf/mc1_separate/009/modelParameter.info ...
element: writing instance parameter values to rawfile.

Opening the PSF file ../psf/mc1_separate/009/element.info ...
outputParameter: writing output parameter values to rawfile.

Opening the PSF file ../psf/mc1_separate/009/outputParameter.info ...
designParamVals: writing netlist parameters to rawfile.

Opening the PSFASCII file ../psf/mc1_separate/009/designParamVals.info ...
primitives: writing primitives to rawfile.

Opening the PSFASCII file ../psf/mc1_separate/009/primitives.info.primitives ...
subckts: writing subcircuits to rawfile.

Opening the PSFASCII file ../psf/mc1_separate/009/subckts.info.subckts ...
    mc1: iteration = 9           (8.08 %), step = 1            (1.01 %)
10   9.09% 

*****************************************************************************************
* 
* INFO: AMS_processOption = C35B4C3
* 
* INFO: Valid Modules  PIP VG5 HIRES
* 
*****************************************************************************************


Notice from spectre during Monte Carlo analysis `mc1'.
    V8: `period' has the unusually large value of 100 s.


***********************************************
Transient Analysis `tran': time = (0 s -> 50 s)
***********************************************

Opening the PSF file ../psf/mc1_separate/010/tran.tran.tran ...

Warning from spectre during check, during IC analysis, during transient analysis `tran', during Monte Carlo analysis `mc1'.
    WARNING (CMI-2943): Parameter checks have been ignored because the valid value for parameter 'trise' could not be found in 'C1'.
    WARNING (CMI-2943): Parameter checks have been ignored because the valid value for parameter 'trise' could not be found in 'I0.R2.CM'.
    WARNING (CMI-2943): Parameter checks have been ignored because the valid value for parameter 'trise' could not be found in 'I0.R2.CS1'.
    WARNING (CMI-2943): Parameter checks have been ignored because the valid value for parameter 'trise' could not be found in 'I0.R2.CS0'.
    WARNING (CMI-2943): Parameter checks have been ignored because the valid value for parameter 'trise' could not be found in 'I0.C3.C1'.
        Further occurrences of this warning will be suppressed.

Convergence achieved in 12 iterations.
DC simulation time: CPU = 2.705 ms, elapsed = 2.70486 ms.
Important parameter values:
    start = 0 s
    outputstart = 0 s
    stop = 50 s
    step = 50 ms
    maxstep = 500 ms
    ic = all
    useprevic = no
    skipdc = no
    reltol = 10e-06
    abstol(V) = 1 uV
    abstol(I) = 1 pA
    temp = -40 C
    tnom = 27 C
    tempeffects = all
    errpreset = conservative
    method = gear2only
    lteratio = 10
    relref = alllocal
    cmin = 0 F
    gmin = 1 pS
    rabsshort = 1 mOhm


Notice from spectre during transient analysis `tran', during Monte Carlo analysis `mc1'.
    Multithreading is disabled due to the size of the design being too small.


Output and IC/nodeset summary:
                 save   8       (current)
                 save   87      (voltage)

    tran: time = 1.27 s      (2.54 %), step = 111.5 ms     (223 m%)
    tran: time = 3.768 s     (7.54 %), step = 288.8 ms     (578 m%)
    tran: time = 6.559 s     (13.1 %), step = 499.4 ms     (999 m%)
    tran: time = 9.059 s     (18.1 %), step = 500 ms          (1 %)
    tran: time = 11.56 s     (23.1 %), step = 500 ms          (1 %)
    tran: time = 14.06 s     (28.1 %), step = 500 ms          (1 %)
    tran: time = 16.56 s     (33.1 %), step = 500 ms          (1 %)
    tran: time = 19.06 s     (38.1 %), step = 500 ms          (1 %)
    tran: time = 21.56 s     (43.1 %), step = 500 ms          (1 %)
    tran: time = 24.06 s     (48.1 %), step = 500 ms          (1 %)
    tran: time = 26.56 s     (53.1 %), step = 500 ms          (1 %)
    tran: time = 29.06 s     (58.1 %), step = 500 ms          (1 %)
[...]


***********************************************
Transient Analysis `tran': time = (0 s -> 50 s)
***********************************************

Opening the PSF file ../psf/mc1_separate/098/tran.tran.tran ...

Warning from spectre during check, during IC analysis, during transient analysis `tran', during Monte Carlo analysis `mc1'.
    WARNING (CMI-2943): Parameter checks have been ignored because the valid value for parameter 'trise' could not be found in 'C1'.
    WARNING (CMI-2943): Parameter checks have been ignored because the valid value for parameter 'trise' could not be found in 'I0.R2.CM'.
    WARNING (CMI-2943): Parameter checks have been ignored because the valid value for parameter 'trise' could not be found in 'I0.R2.CS1'.
    WARNING (CMI-2943): Parameter checks have been ignored because the valid value for parameter 'trise' could not be found in 'I0.R2.CS0'.
    WARNING (CMI-2943): Parameter checks have been ignored because the valid value for parameter 'trise' could not be found in 'I0.C3.C1'.
        Further occurrences of this warning will be suppressed.

Convergence achieved in 12 iterations.
DC simulation time: CPU = 2.369 ms, elapsed = 2.37703 ms.
Important parameter values:
    start = 0 s
    outputstart = 0 s
    stop = 50 s
    step = 50 ms
    maxstep = 500 ms
    ic = all
    useprevic = no
    skipdc = no
    reltol = 10e-06
    abstol(V) = 1 uV
    abstol(I) = 1 pA
    temp = -40 C
    tnom = 27 C
    tempeffects = all
    errpreset = conservative
    method = gear2only
    lteratio = 10
    relref = alllocal
    cmin = 0 F
    gmin = 1 pS
    rabsshort = 1 mOhm


Notice from spectre during transient analysis `tran', during Monte Carlo analysis `mc1'.
    Multithreading is disabled due to the size of the design being too small.


Output and IC/nodeset summary:
                 save   8       (current)
                 save   87      (voltage)

    tran: time = 1.343 s     (2.69 %), step = 126.3 ms     (253 m%)
    tran: time = 3.837 s     (7.67 %), step = 301.9 ms     (604 m%)
    tran: time = 6.729 s     (13.5 %), step = 500 ms          (1 %)
    tran: time = 9.229 s     (18.5 %), step = 500 ms          (1 %)
    tran: time = 11.73 s     (23.5 %), step = 500 ms          (1 %)
    tran: time = 14.23 s     (28.5 %), step = 500 ms          (1 %)
    tran: time = 16.73 s     (33.5 %), step = 500 ms          (1 %)
    tran: time = 19.23 s     (38.5 %), step = 500 ms          (1 %)
    tran: time = 21.73 s     (43.5 %), step = 500 ms          (1 %)
    tran: time = 24.23 s     (48.5 %), step = 500 ms          (1 %)
    tran: time = 26.73 s     (53.5 %), step = 500 ms          (1 %)
    tran: time = 29.23 s     (58.5 %), step = 500 ms          (1 %)
    tran: time = 31.73 s     (63.5 %), step = 500 ms          (1 %)
    tran: time = 34.23 s     (68.5 %), step = 500 ms          (1 %)
    tran: time = 36.73 s     (73.5 %), step = 500 ms          (1 %)
    tran: time = 39.23 s     (78.5 %), step = 500 ms          (1 %)
    tran: time = 41.73 s     (83.5 %), step = 500 ms          (1 %)
    tran: time = 44.22 s     (88.4 %), step = 491.8 ms     (984 m%)
    tran: time = 46.26 s     (92.5 %), step = 123 ms       (246 m%)
    tran: time = 48.95 s     (97.9 %), step = 239.4 ms     (479 m%)
Number of accepted tran steps =             657

Maximum value achieved for any signal of each quantity: 
V: V(vout_filt) = 3.3 V
I: I(V8:p) = 6.336 uA

~~~~~~~~~~~~~~~~~~~~~~~~~~~~~~~~~
Post-Transient Simulation Summary
~~~~~~~~~~~~~~~~~~~~~~~~~~~~~~~~~
   -   To further speed up simulation, consider
          add ++aps on command line
   -   Non-default settings that could significantly slow down simulation
          errpreset = conservative, default moderate
          reltol = 10e-06, default 100e-06 (conservative)
~~~~~~~~~~~~~~~~~~~~~~~~~~~~~~~~~


During simulation, the CPU load for active processors is :
         0 (63.9 %)      1 (18.9 %)      2 (12.0 %)      3 (28.4 %)
         4 (37.6 %)      5 (69.6 %)      6 (20.7 %)      7 (8.8 %)
         8 (7.8 %)       9 (32.6 %)     10 (21.0 %)     11 (7.3 %)
        12 (19.3 %)     13 (26.9 %)     14 (31.0 %)     15 (28.1 %)
        16 (36.3 %)     17 (23.6 %)     18 (22.1 %)     19 (39.6 %)
        20 (22.5 %)     21 (20.9 %)     22 (32.7 %)     23 (29.9 %)
        24 (19.8 %)     25 (18.6 %)     26 (13.5 %)     27 (20.8 %)
        28 (18.2 %)     29 (100.0 %)    30 (21.9 %)     31 (11.9 %)
        32 (18.7 %)     33 (16.9 %)     34 (20.8 %)     35 (18.0 %)
        36 (50.8 %)     37 (32.2 %)     38 (16.9 %)     39 (50.3 %)
        40 (19.2 %)     41 (35.5 %)     42 (34.7 %)     43 (11.8 %)
        44 (12.0 %)     45 (4.7 %)      46 (7.4 %)      47 (44.0 %)
        Total: 1279.9%
Initial condition solution time: CPU = 2.406 ms, elapsed = 2.41613 ms.
Intrinsic tran analysis time:    CPU = 368.719 ms, elapsed = 370.022 ms.
Total time required for tran analysis `tran': CPU = 373.543 ms, elapsed = 375.535 ms, util. = 99.5%.
Time accumulated: CPU = 42.0688 s, elapsed = 43.956 s.
Peak resident memory used = 214 Mbytes.


Notice from spectre during transient analysis `tran', during Monte Carlo analysis `mc1'.
    34 warnings suppressed.

finalTimeOP: writing operating point information to rawfile.

Opening the PSF file ../psf/mc1_separate/098/finalTimeOP.info ...
modelParameter: writing model parameter values to rawfile.

Opening the PSF file ../psf/mc1_separate/098/modelParameter.info ...
element: writing instance parameter values to rawfile.

Opening the PSF file ../psf/mc1_separate/098/element.info ...
outputParameter: writing output parameter values to rawfile.

Opening the PSF file ../psf/mc1_separate/098/outputParameter.info ...
designParamVals: writing netlist parameters to rawfile.

Opening the PSFASCII file ../psf/mc1_separate/098/designParamVals.info ...
primitives: writing primitives to rawfile.

Opening the PSFASCII file ../psf/mc1_separate/098/primitives.info.primitives ...
subckts: writing subcircuits to rawfile.

Opening the PSFASCII file ../psf/mc1_separate/098/subckts.info.subckts ...
    mc1: iteration = 98            (98 %), step = 1            (1.01 %)
99  98.99% 

*****************************************************************************************
* 
* INFO: AMS_processOption = C35B4C3
* 
* INFO: Valid Modules  PIP VG5 HIRES
* 
*****************************************************************************************


Notice from spectre during Monte Carlo analysis `mc1'.
    V8: `period' has the unusually large value of 100 s.


***********************************************
Transient Analysis `tran': time = (0 s -> 50 s)
***********************************************

Opening the PSF file ../psf/mc1_separate/099/tran.tran.tran ...

Warning from spectre during check, during IC analysis, during transient analysis `tran', during Monte Carlo analysis `mc1'.
    WARNING (CMI-2943): Parameter checks have been ignored because the valid value for parameter 'trise' could not be found in 'C1'.
    WARNING (CMI-2943): Parameter checks have been ignored because the valid value for parameter 'trise' could not be found in 'I0.R2.CM'.
    WARNING (CMI-2943): Parameter checks have been ignored because the valid value for parameter 'trise' could not be found in 'I0.R2.CS1'.
    WARNING (CMI-2943): Parameter checks have been ignored because the valid value for parameter 'trise' could not be found in 'I0.R2.CS0'.
    WARNING (CMI-2943): Parameter checks have been ignored because the valid value for parameter 'trise' could not be found in 'I0.C3.C1'.
        Further occurrences of this warning will be suppressed.

Convergence achieved in 12 iterations.
DC simulation time: CPU = 2.355 ms, elapsed = 2.35605 ms.
Important parameter values:
    start = 0 s
    outputstart = 0 s
    stop = 50 s
    step = 50 ms
    maxstep = 500 ms
    ic = all
    useprevic = no
    skipdc = no
    reltol = 10e-06
    abstol(V) = 1 uV
    abstol(I) = 1 pA
    temp = -40 C
    tnom = 27 C
    tempeffects = all
    errpreset = conservative
    method = gear2only
    lteratio = 10
    relref = alllocal
    cmin = 0 F
    gmin = 1 pS
    rabsshort = 1 mOhm


Notice from spectre during transient analysis `tran', during Monte Carlo analysis `mc1'.
    Multithreading is disabled due to the size of the design being too small.


Output and IC/nodeset summary:
                 save   8       (current)
                 save   87      (voltage)

    tran: time = 1.263 s     (2.53 %), step = 115.9 ms     (232 m%)
    tran: time = 3.85 s       (7.7 %), step = 298.7 ms     (597 m%)
    tran: time = 6.719 s     (13.4 %), step = 500 ms          (1 %)
    tran: time = 9.219 s     (18.4 %), step = 500 ms          (1 %)
    tran: time = 11.72 s     (23.4 %), step = 500 ms          (1 %)
    tran: time = 14.22 s     (28.4 %), step = 500 ms          (1 %)
    tran: time = 16.72 s     (33.4 %), step = 500 ms          (1 %)
    tran: time = 19.22 s     (38.4 %), step = 500 ms          (1 %)
    tran: time = 21.72 s     (43.4 %), step = 500 ms          (1 %)
    tran: time = 24.22 s     (48.4 %), step = 500 ms          (1 %)
    tran: time = 26.72 s     (53.4 %), step = 500 ms          (1 %)
    tran: time = 29.22 s     (58.4 %), step = 500 ms          (1 %)
    tran: time = 31.72 s     (63.4 %), step = 500 ms          (1 %)
    tran: time = 34.22 s     (68.4 %), step = 500 ms          (1 %)
    tran: time = 36.72 s     (73.4 %), step = 500 ms          (1 %)
    tran: time = 39.22 s     (78.4 %), step = 500 ms          (1 %)
    tran: time = 41.72 s     (83.4 %), step = 500 ms          (1 %)
    tran: time = 44.08 s     (88.2 %), step = 396.3 ms     (793 m%)
    tran: time = 46.26 s     (92.5 %), step = 7.074 ms    (14.1 m%)
    tran: time = 49.1 s      (98.2 %), step = 432.7 ms     (865 m%)
Number of accepted tran steps =             664

Maximum value achieved for any signal of each quantity: 
V: V(vout_filt) = 3.3 V
I: I(V8:p) = 6.29 uA

~~~~~~~~~~~~~~~~~~~~~~~~~~~~~~~~~
Post-Transient Simulation Summary
~~~~~~~~~~~~~~~~~~~~~~~~~~~~~~~~~
   -   To further speed up simulation, consider
          add ++aps on command line
   -   Non-default settings that could significantly slow down simulation
          errpreset = conservative, default moderate
          reltol = 10e-06, default 100e-06 (conservative)
~~~~~~~~~~~~~~~~~~~~~~~~~~~~~~~~~


During simulation, the CPU load for active processors is :
         0 (64.3 %)      1 (19.8 %)      2 (12.5 %)      3 (28.4 %)
         4 (37.3 %)      5 (69.9 %)      6 (20.5 %)      7 (8.7 %)
         8 (7.9 %)       9 (32.3 %)     10 (20.8 %)     11 (7.2 %)
        12 (19.1 %)     13 (27.6 %)     14 (31.7 %)     15 (27.8 %)
        16 (37.0 %)     17 (23.4 %)     18 (21.9 %)     19 (39.2 %)
        20 (22.5 %)     21 (20.8 %)     22 (32.5 %)     23 (29.7 %)
        24 (20.5 %)     25 (18.4 %)     26 (13.4 %)     27 (20.7 %)
        28 (19.0 %)     29 (100.0 %)    30 (21.8 %)     31 (11.8 %)
        32 (18.5 %)     33 (16.7 %)     34 (20.6 %)     35 (17.8 %)
        36 (50.8 %)     37 (32.8 %)     38 (17.2 %)     39 (49.8 %)
        40 (19.1 %)     41 (35.2 %)     42 (35.3 %)     43 (11.7 %)
        44 (11.9 %)     45 (4.7 %)      46 (7.4 %)      47 (43.7 %)
        Total: 1281.7%
Initial condition solution time: CPU = 2.395 ms, elapsed = 2.39682 ms.
Intrinsic tran analysis time:    CPU = 375.805 ms, elapsed = 377.101 ms.
Total time required for tran analysis `tran': CPU = 380.494 ms, elapsed = 382.371 ms, util. = 99.5%.
Time accumulated: CPU = 42.4881 s, elapsed = 44.3873 s.
Peak resident memory used = 214 Mbytes.


Notice from spectre during transient analysis `tran', during Monte Carlo analysis `mc1'.
    34 warnings suppressed.

finalTimeOP: writing operating point information to rawfile.

Opening the PSF file ../psf/mc1_separate/099/finalTimeOP.info ...
modelParameter: writing model parameter values to rawfile.

Opening the PSF file ../psf/mc1_separate/099/modelParameter.info ...
element: writing instance parameter values to rawfile.

Opening the PSF file ../psf/mc1_separate/099/element.info ...
outputParameter: writing output parameter values to rawfile.

Opening the PSF file ../psf/mc1_separate/099/outputParameter.info ...
designParamVals: writing netlist parameters to rawfile.

Opening the PSFASCII file ../psf/mc1_separate/099/designParamVals.info ...
primitives: writing primitives to rawfile.

Opening the PSFASCII file ../psf/mc1_separate/099/primitives.info.primitives ...
subckts: writing subcircuits to rawfile.

Opening the PSFASCII file ../psf/mc1_separate/099/subckts.info.subckts ...
    mc1: iteration = 99            (99 %), step = 1            (1.01 %)
100 100.00% 

*****************************************************************************************
* 
* INFO: AMS_processOption = C35B4C3
* 
* INFO: Valid Modules  PIP VG5 HIRES
* 
*****************************************************************************************


Notice from spectre during Monte Carlo analysis `mc1'.
    V8: `period' has the unusually large value of 100 s.


***********************************************
Transient Analysis `tran': time = (0 s -> 50 s)
***********************************************

Opening the PSF file ../psf/mc1_separate/100/tran.tran.tran ...

Warning from spectre during check, during IC analysis, during transient analysis `tran', during Monte Carlo analysis `mc1'.
    WARNING (CMI-2943): Parameter checks have been ignored because the valid value for parameter 'trise' could not be found in 'C1'.
    WARNING (CMI-2943): Parameter checks have been ignored because the valid value for parameter 'trise' could not be found in 'I0.R2.CM'.
    WARNING (CMI-2943): Parameter checks have been ignored because the valid value for parameter 'trise' could not be found in 'I0.R2.CS1'.
    WARNING (CMI-2943): Parameter checks have been ignored because the valid value for parameter 'trise' could not be found in 'I0.R2.CS0'.
    WARNING (CMI-2943): Parameter checks have been ignored because the valid value for parameter 'trise' could not be found in 'I0.C3.C1'.
        Further occurrences of this warning will be suppressed.

Convergence achieved in 12 iterations.
DC simulation time: CPU = 2.238 ms, elapsed = 2.23804 ms.
Important parameter values:
    start = 0 s
    outputstart = 0 s
    stop = 50 s
    step = 50 ms
    maxstep = 500 ms
    ic = all
    useprevic = no
    skipdc = no
    reltol = 10e-06
    abstol(V) = 1 uV
    abstol(I) = 1 pA
    temp = -40 C
    tnom = 27 C
    tempeffects = all
    errpreset = conservative
    method = gear2only
    lteratio = 10
    relref = alllocal
    cmin = 0 F
    gmin = 1 pS
    rabsshort = 1 mOhm


Notice from spectre during transient analysis `tran', during Monte Carlo analysis `mc1'.
    Multithreading is disabled due to the size of the design being too small.


Output and IC/nodeset summary:
                 save   8       (current)
                 save   87      (voltage)

    tran: time = 1.369 s     (2.74 %), step = 124 ms       (248 m%)
    tran: time = 3.823 s     (7.65 %), step = 297.5 ms     (595 m%)
    tran: time = 6.681 s     (13.4 %), step = 500 ms          (1 %)
    tran: time = 9.181 s     (18.4 %), step = 500 ms          (1 %)
    tran: time = 11.68 s     (23.4 %), step = 500 ms          (1 %)
    tran: time = 14.18 s     (28.4 %), step = 500 ms          (1 %)
    tran: time = 16.68 s     (33.4 %), step = 500 ms          (1 %)
    tran: time = 19.18 s     (38.4 %), step = 500 ms          (1 %)
    tran: time = 21.68 s     (43.4 %), step = 500 ms          (1 %)
    tran: time = 24.18 s     (48.4 %), step = 500 ms          (1 %)
    tran: time = 26.68 s     (53.4 %), step = 500 ms          (1 %)
    tran: time = 29.18 s     (58.4 %), step = 500 ms          (1 %)
    tran: time = 31.68 s     (63.4 %), step = 500 ms          (1 %)
    tran: time = 34.18 s     (68.4 %), step = 500 ms          (1 %)
    tran: time = 36.68 s     (73.4 %), step = 500 ms          (1 %)
    tran: time = 39.18 s     (78.4 %), step = 500 ms          (1 %)
    tran: time = 41.68 s     (83.4 %), step = 500 ms          (1 %)
    tran: time = 44.12 s     (88.2 %), step = 439.2 ms     (878 m%)
    tran: time = 46.26 s     (92.5 %), step = 26.18 ms    (52.4 m%)
    tran: time = 48.78 s     (97.6 %), step = 306 ms       (612 m%)
Number of accepted tran steps =             663

Maximum value achieved for any signal of each quantity: 
V: V(vout_filt) = 3.3 V
I: I(V8:p) = 6.653 uA

~~~~~~~~~~~~~~~~~~~~~~~~~~~~~~~~~
Post-Transient Simulation Summary
~~~~~~~~~~~~~~~~~~~~~~~~~~~~~~~~~
   -   To further speed up simulation, consider
          add ++aps on command line
   -   Non-default settings that could significantly slow down simulation
          errpreset = conservative, default moderate
          reltol = 10e-06, default 100e-06 (conservative)
~~~~~~~~~~~~~~~~~~~~~~~~~~~~~~~~~


During simulation, the CPU load for active processors is :
         0 (64.6 %)      1 (20.5 %)      2 (13.1 %)      3 (28.3 %)
         4 (37.1 %)      5 (70.2 %)      6 (20.3 %)      7 (8.9 %)
         8 (7.8 %)       9 (32.0 %)     10 (20.6 %)     11 (7.1 %)
        12 (19.0 %)     13 (28.2 %)     14 (32.3 %)     15 (27.6 %)
        16 (36.7 %)     17 (23.4 %)     18 (21.8 %)     19 (39.7 %)
        20 (22.4 %)     21 (20.8 %)     22 (32.2 %)     23 (29.4 %)
        24 (21.3 %)     25 (18.2 %)     26 (13.3 %)     27 (20.5 %)
        28 (18.9 %)     29 (100.0 %)    30 (21.6 %)     31 (11.7 %)
        32 (18.3 %)     33 (17.4 %)     34 (20.4 %)     35 (17.7 %)
        36 (50.4 %)     37 (33.4 %)     38 (18.0 %)     39 (49.4 %)
        40 (18.9 %)     41 (34.9 %)     42 (35.7 %)     43 (11.7 %)
        44 (12.0 %)     45 (4.6 %)      46 (7.4 %)      47 (44.1 %)
        Total: 1283.9%
Initial condition solution time: CPU = 2.277 ms, elapsed = 2.28 ms.
Intrinsic tran analysis time:    CPU = 364.449 ms, elapsed = 365.682 ms.
Total time required for tran analysis `tran': CPU = 369.325 ms, elapsed = 371.37 ms, util. = 99.4%.
Time accumulated: CPU = 42.8941 s, elapsed = 44.8052 s.
Peak resident memory used = 214 Mbytes.


Notice from spectre during transient analysis `tran', during Monte Carlo analysis `mc1'.
    34 warnings suppressed.

finalTimeOP: writing operating point information to rawfile.

Opening the PSF file ../psf/mc1_separate/100/finalTimeOP.info ...
modelParameter: writing model parameter values to rawfile.

Opening the PSF file ../psf/mc1_separate/100/modelParameter.info ...
element: writing instance parameter values to rawfile.

Opening the PSF file ../psf/mc1_separate/100/element.info ...
outputParameter: writing output parameter values to rawfile.

Opening the PSF file ../psf/mc1_separate/100/outputParameter.info ...
designParamVals: writing netlist parameters to rawfile.

Opening the PSFASCII file ../psf/mc1_separate/100/designParamVals.info ...
primitives: writing primitives to rawfile.

Opening the PSFASCII file ../psf/mc1_separate/100/primitives.info.primitives ...
subckts: writing subcircuits to rawfile.

Opening the PSFASCII file ../psf/mc1_separate/100/subckts.info.subckts ...
    mc1: iteration = 100          (100 %), step = 1            (1.01 %)
Total time required for montecarlo analysis `mc1': CPU = 42.4704 s, elapsed = 43.805 s, util. = 97%.
Time accumulated: CPU = 42.9216 s, elapsed = 44.8435 s.
Peak resident memory used = 215 Mbytes.

Licensing Information:
Lic Summary:
[16:52:45.396849] Cdslmd servers:3000@lic08.ug.kth.se:29000@lic06.ug.kth.se
[16:52:45.921177] Feature usage summary:
[16:52:45.921178] Virtuoso_Multi_mode_Simulation


Aggregate audit (4:52:45 PM, Wed Apr 15, 2026):
Time used: CPU = 42.9 s, elapsed = 44.9 s, util. = 95.7%.
Time spent in licensing: elapsed = 54 ms.
Peak memory used = 215 Mbytes.
Simulation started at: 4:52:01 PM, Wed Apr 15, 2026, ended at: 4:52:45 PM, Wed Apr 15, 2026, with elapsed time (wall clock): 44.9 s.
spectre completes with 0 errors, 522 warnings, and 310 notices.
