
Spectre (R) Circuit Simulator
Version 24.1.0.288.isr5 64bit -- 3 Apr 2025
Copyright (C) 1989-2025 Cadence Design Systems, Inc. All rights reserved worldwide. Cadence and Spectre are registered trademarks of Cadence Design Systems, Inc. All others are the property of their respective holders.

Includes RSA BSAFE(R) Cryptographic or Security Protocol Software from RSA Security, Inc.

User: davidevi   Host: il2244vt26_davidevi   HostID: 11AC2C00   PID: 509687
Memory  available: 3.0782 TB  physical: 3.2467 TB
Linux   : Rocky Linux release 8.10 (Green Obsidian)
CPU Type: Intel(R) Xeon(R) CPU E7-8857 v2 @ 3.00GHz
        Socket: Processors [Frequency]
        0:       0 [3000.0],  1 [2999.9],  2 [1200.0],  3 [1200.0],  4 [1200.0]
                 5 [1200.0],  6 [1200.0],  7 [1200.0],  8 [1200.0],  9 [2999.9]
                10 [2999.9], 11 [1200.0]
        1:      12 [2700.0], 13 [3600.0], 14 [1200.0], 15 [2999.9], 16 [1200.0]
                17 [2999.9], 18 [1200.0], 19 [3600.0], 20 [2500.0], 21 [1200.0]
                22 [2545.9], 23 [2094.4]
        2:      24 [2999.9], 25 [3000.0], 26 [2999.9], 27 [2999.9], 28 [2933.2]
                29 [1200.0], 30 [2961.7], 31 [2944.9], 32 [2946.9], 33 [2992.0]
                34 [2994.1], 35 [2943.7]
        3:      36 [2582.3], 37 [2193.7], 38 [2180.5], 39 [2214.0], 40 [2176.9]
                41 [2202.7], 42 [2999.9], 43 [2293.3], 44 [2285.9], 45 [2244.0]
                46 [2999.9], 47 [2427.1]
        
System load averages (1min, 5min, 15min) : 13.8 %, 12.8 %, 12.6 %
HPC is enabled


Simulating `input.scs' on il2244vt26_davidevi at 5:16:01 PM, Wed Mar 18, 2026 (process id: 509687).
Current working directory: /home/davidevi/Desktop/myproject/Sim/ECG_IA/ecg_vga_tb/adexl/results/data/Interactive.105/1/ECG_IA:ecg_vga_tb:1/netlist
Command line:
    /opt/tools/cadence/installs/SPECTRE241/tools/bin/spectre -64  \
        input.scs +escchars +log ../psf/spectre.out -format psfbin  \
        +rtsf -raw ../psf +aps +mt +lqtimeout 900 -maxw 5 -maxn 5  \
        +param /opt/pdk/ams/410/spectre/ams_range.lmts -env ade  \
        -ahdllibdir  \
        /home/davidevi/Desktop/myproject/Sim/ECG_IA/ecg_vga_tb/adexl/results/data/Interactive.105/sharedData/CDS/ahdl/input.ahdlSimDB  \
        +logstatus  \
        +adespetkn=0001089D13A302B663E41FB550AF0DF415A679A322D5069144BF588C12F604E07EF416DC01A319B562BB63D355F413BD45A342C336E011837AEC41F248FF4F925BF779D15D9175FF34986BDD0AF002BA50FD7FD707E002A700AC1C8404FE5AE30EA979D118F874D3349879D118F874D33498106BC528A9035D2200003658

Simulation Id: gnKHufNtePkFWLoo
Licensing Information:
[17:16:02.121738] Configured Lic search path (24.01-s002): 3000@lic08.ug.kth.se:29000@lic06.ug.kth.se

Licensing Information:
[17:16:02.169377] Periodic Lic check successful

Loading /opt/tools/cadence/installs/SPECTRE241/tools.lnx86/cmi/lib/64bit/5.0/libinfineon_sh.so ...
Loading /opt/tools/cadence/installs/SPECTRE241/tools.lnx86/cmi/lib/64bit/5.0/libphilips_I_sh.so ...
Loading /opt/tools/cadence/installs/SPECTRE241/tools.lnx86/cmi/lib/64bit/5.0/libphilips_sh.so ...
Loading /opt/tools/cadence/installs/SPECTRE241/tools.lnx86/cmi/lib/64bit/5.0/libsparam_sh.so ...
Loading /opt/tools/cadence/installs/SPECTRE241/tools.lnx86/cmi/lib/64bit/5.0/libstmodels_sh.so ...

Warning from spectre.
    WARNING (SPECTRE-691): This CPU processor does not support x86 advanced vector extensions instructions. This may affect math operations and slow down the simulation.

Reading file:  /home/davidevi/Desktop/myproject/Sim/ECG_IA/ecg_vga_tb/adexl/results/data/Interactive.105/1/ECG_IA:ecg_vga_tb:1/netlist/input.scs
Reading file:  /opt/pdk/ams/410/spectre/ams_range.lmts

Warning from spectre during read of parameter soft limits file `/opt/pdk/ams/410/spectre/ams_range.lmts', during circuit read-in.
    WARNING (SPECTRE-8360): line 1511: `ac' is an undefined primitive device.
    WARNING (SPECTRE-8360): line 1512: `ac' is an undefined primitive device.
    WARNING (SPECTRE-8360): line 1513: `ac' is an undefined primitive device.
    WARNING (SPECTRE-8360): line 1514: `ac' is an undefined primitive device.
    WARNING (SPECTRE-8360): line 1515: `ac' is an undefined primitive device.
        Further occurrences of this warning will be suppressed.

Reading file:  /opt/tools/cadence/installs/SPECTRE241/tools.lnx86/spectre/etc/configs/spectre.cfg
Reading file:  /opt/pdk/ams/410/spectre/c35/soac/soac.scs
Reading file:  /opt/pdk/ams/410/spectre/c35/soac/processOption.scs
Reading file:  /opt/pdk/ams/410/spectre/c35/soac/process.scs
Reading file:  /opt/pdk/ams/410/spectre/c35/soac/soac.va

Warning from spectre during AHDL read-in.
    WARNING (VACOMP-2435): The environment variable CDS_AHDLCMI_ENABLE is no longer supported. Therefore, the simulator will use the default compiled C code flow.

Reading link:  /opt/tools/cadence/installs/SPECTRE241/tools.lnx86/spectre/etc/ahdl/constants.h
Reading file:  /opt/tools/cadence/installs/SPECTRE241/tools.lnx86/spectre/etc/ahdl/constants.vams
Reading link:  /opt/tools/cadence/installs/SPECTRE241/tools.lnx86/spectre/etc/ahdl/discipline.h
Reading file:  /opt/tools/cadence/installs/SPECTRE241/tools.lnx86/spectre/etc/ahdl/disciplines.vams
Reading file:  /opt/pdk/ams/410/spectre/c35/processOption/C35B4C3.scs
Reading file:  /opt/pdk/ams/410/spectre/c35/soac/cmos53.scs
Reading file:  /opt/pdk/ams/410/spectre/c35/soac/res.scs
Reading file:  /opt/pdk/ams/410/spectre/c35/soac/cap.scs
Reading file:  /opt/pdk/ams/410/spectre/c35/soac/bip.scs
Reading file:  /opt/pdk/ams/410/spectre/c35/soac/ind.scs
Reading file:  /opt/pdk/ams/410/spectre/c35/soac/esddiode.scs
Time for NDB Parsing: CPU = 161.933 ms, elapsed = 396.111 ms.
Time accumulated: CPU = 358.493 ms, elapsed = 396.114 ms.
Peak resident memory used = 174 Mbytes.

Existing shared object for module modn_ahdl is up to date.
Installed compiled interface for modn_ahdl.
Existing shared object for module cpoly_ahdl is up to date.
Installed compiled interface for cpoly_ahdl.
Existing shared object for module modp_ahdl is up to date.
Installed compiled interface for modp_ahdl.
Time for Elaboration: CPU = 41.033 ms, elapsed = 43.2029 ms.
Time accumulated: CPU = 399.666 ms, elapsed = 439.456 ms.
Peak resident memory used = 186 Mbytes.


Notice from spectre during hierarchy flattening.
    The value 'psf' specified for the 'checklimitdest' option will no longer be supported in future releases. Use 'spectre -h' to see other recommended values for the 'checklimitdest' option.


*****************************************************************************************
* 
* INFO: AMS_processOption = C35B4C3
* 
* INFO: Valid Modules  PIP VG5 HIRES
* 
*****************************************************************************************



Warning from spectre during hierarchy flattening.
    WARNING (SPECTRE-8527): There are some nodes and instances removed from the netlist topology check. Check the circuit and correct the topology. Or use preserve_inst to keep them if necessary.

***********************************************
  Total removed instances 1 ( dangling 0, terminals connected together 1)  

Warning from spectre during hierarchy flattening.
    WARNING (SPECTRE-8528): The I0.C5.C1 device is removed because its terminals are connected together. Check the device in the netlist file to ensure that this warning can be ignored.


  Total removed nodes 0 ( dangling nodes 0, floating nodes 0 )
***********************************************
Time for EDB Visiting: CPU = 7.475 ms, elapsed = 7.51591 ms.
Time accumulated: CPU = 407.343 ms, elapsed = 447.172 ms.
Peak resident memory used = 188 Mbytes.

Loading /opt/tools/cadence/installs/SPECTRE241/tools.lnx86/mdl/lib/64bit/libSpectreEH_sh.so ...

Warning from spectre during initial setup.
    WARNING (SPECTRE-16460): SOAC_cvarm_vspsub:Specified subcircuit master `cvarm' was not found.
    WARNING (SPECTRE-16462): SOAC_cvarm_vspsub:Error in specification of subcircuit master. Assert is ignored.
    WARNING (SPECTRE-16460): SOAC_cvarm_vbs:Specified subcircuit master `cvarm' was not found.
    WARNING (SPECTRE-16462): SOAC_cvarm_vbs:Error in specification of subcircuit master. Assert is ignored.
    WARNING (SPECTRE-16460): SOAC_cvarm_vgb:Specified subcircuit master `cvarm' was not found.
    WARNING (SPECTRE-16462): SOAC_cvarm_vgb:Error in specification of subcircuit master. Assert is ignored.
    WARNING (SPECTRE-16460): SOAC_cvart_vspsub:Specified subcircuit master `cvart' was not found.
    WARNING (SPECTRE-16462): SOAC_cvart_vspsub:Error in specification of subcircuit master. Assert is ignored.
    WARNING (SPECTRE-16460): SOAC_cvart_vbs:Specified subcircuit master `cvart' was not found.
        Further occurrences of this warning will be suppressed.
    WARNING (SPECTRE-16462): SOAC_cvart_vbs:Error in specification of subcircuit master. Assert is ignored.
        Further occurrences of this warning will be suppressed.
Notice from spectre during topology check.
    Only one connection to the following 36 nodes:
        I0.MN9.psub!
        I0.MN7.psub!
        I0.MN17.psub!
        I0.MN16.psub!
        I0.MN15.psub!
        Further occurrences of this notice will be suppressed.
Notice from spectre during initial setup.
    Multithreading is disabled due to the size of the design being too small.


Netlist title:
        // Point Netlist Generated on: Mar 18 17:16:00 2026


Global user options:
         psfversion = 1.4.0
            vabstol = 1e-06
            iabstol = 1e-12
               temp = 27
           homotopy = 5
              limit = delta
         compatible = spice2
               gmin = 1e-12
             rforce = 1
           maxnotes = 5
           maxwarns = 5
             digits = 5
               cols = 80
             pivrel = 0.001
           sensfile = ../psf/sens.output
     checklimitdest = psf
     enable_pre_ver = yes
      ignorezerovar = yes
               save = allpub
             reltol = 0.0001
               tnom = 27
             scalem = 1
              scale = 1

Scoped user options:

Circuit inventory:
              nodes 76
            bsim3v3 30    
          capacitor 39    
         cpoly_ahdl 19    
            isource 1     
          modn_ahdl 16    
          modp_ahdl 14    
           resistor 1     
            vsource 7     

Analysis and control statement inventory:
                 ac 1     
                 dc 1     
               info 8     
              noise 1     
                 pz 1     
               tran 1     

Output statements:
             .probe 0     
           .measure 0     
               save 0     

Design checks inventory:
          paramtest 50    
             assert 175   


Notice from spectre during initial setup.
    APS enabled.
    1 notice suppressed.
    72 warnings suppressed.

Time for parsing: CPU = 17.872 ms, elapsed = 637.976 ms.
Time accumulated: CPU = 425.327 ms, elapsed = 1.08526 s.
Peak resident memory used = 195 Mbytes.

~~~~~~~~~~~~~~~~~~~~~~
Pre-Simulation Summary
~~~~~~~~~~~~~~~~~~~~~~
   -   (APS) Multi-threading. The recommended number of threads is 1, consider adding +mt=1 on command line.
~~~~~~~~~~~~~~~~~~~~~~

******************
DC Analysis `dcOp'
******************

Notice from spectre during DC analysis `dcOp'.
    No checklimit analysis defined for asserts. A default checklimit analysis 'SpectreChecklimitAnal' has been created with all asserts enabled.


Opening the PSF file ../psf/dcOp.dc ...
Important parameter values:
    reltol = 100e-06
    abstol(V) = 1 uV
    abstol(I) = 1 pA
    temp = 27 C
    tnom = 27 C
    tempeffects = all
    gmindc = 1 pS
    rabsshort = 1 mOhm

Notice from spectre during DC analysis `dcOp'.
    Bad pivoting is found during DC analysis. Option dc_pivot_check=yes is recommended for possible improvement of convergence.


Maximum value achieved for any signal of each quantity: 
V: V(net2) = 3.3 V
I: I(V0:p) = 2.307 uA
Maximum value of each quantity, excluding Verilog-A modules or dangling current sources:
V: V(net3) = 1.6 V
I: I(V0:p) = 2.307 uA

Warning from spectre during check, during DC analysis `dcOp'.
    WARNING (CMI-2943): Parameter checks have been ignored because the valid value for parameter 'trise' could not be found in 'I0.C4.C1'.
    WARNING (CMI-2943): Parameter checks have been ignored because the valid value for parameter 'trise' could not be found in 'I0.C7<0>_turbo_m4.C1'.
    WARNING (CMI-2943): Parameter checks have been ignored because the valid value for parameter 'trise' could not be found in 'I0.C9<0>_turbo_m3.C1'.
    WARNING (CMI-2943): Parameter checks have been ignored because the valid value for parameter 'trise' could not be found in 'I0.C6<0>_turbo_m2.C1'.
    WARNING (CMI-2943): Parameter checks have been ignored because the valid value for parameter 'trise' could not be found in 'I0.C8<0>_turbo_m8.C1'.
        Further occurrences of this warning will be suppressed.

Convergence achieved in 18 iterations.
DC simulation time: CPU = 87.504 ms, elapsed = 100.205 ms.
Total time required for dc analysis `dcOp': CPU = 87.674 ms, elapsed = 100.362 ms, util. = 87.4%.
Time accumulated: CPU = 535.566 ms, elapsed = 1.20912 s.
Peak resident memory used = 203 Mbytes.


Notice from spectre.
    8 warnings suppressed.

dcOpInfo: writing operating point information to rawfile.

Opening the PSF file ../psf/dcOpInfo.info ...

****************
PZ Analysis `pz'
****************

Warning from spectre during PZ analysis `pz'.
    WARNING: BSIM3v3 MOS Transistor - frequency dependent components are present in the circuit, approximated as AC equivalents at 1.000000e+00Hz for pz analysis.
Notice from spectre during DC analysis, during PZ analysis `pz'.
    Bad pivoting is found during DC analysis. Option dc_pivot_check=yes is recommended for possible improvement of convergence.
Warning from spectre during check, during DC analysis, during PZ analysis `pz'.
    WARNING (CMI-2943): Parameter checks have been ignored because the valid value for parameter 'trise' could not be found in 'I0.C4.C1'.
    WARNING (CMI-2943): Parameter checks have been ignored because the valid value for parameter 'trise' could not be found in 'I0.C7<0>_turbo_m4.C1'.
    WARNING (CMI-2943): Parameter checks have been ignored because the valid value for parameter 'trise' could not be found in 'I0.C9<0>_turbo_m3.C1'.
    WARNING (CMI-2943): Parameter checks have been ignored because the valid value for parameter 'trise' could not be found in 'I0.C6<0>_turbo_m2.C1'.
    WARNING (CMI-2943): Parameter checks have been ignored because the valid value for parameter 'trise' could not be found in 'I0.C8<0>_turbo_m8.C1'.
        Further occurrences of this warning will be suppressed.

Convergence achieved in 18 iterations.
DC simulation time: CPU = 3.098 ms, elapsed = 3.09777 ms.

Opening the PSF file ../psf/pz.pz ...
Convergence achieved in 2 iterations.
DC simulation time: CPU = 686 us, elapsed = 685.93 us.
                      Poles (Hz)

           Real                       Imaginary                 Qfactor

   1   -3.97981e-02                  0.00000e+00              5.00000e-01 
   2   -3.28488e+04                  0.00000e+00              5.00000e-01 
   3   -8.32011e+04                  0.00000e+00              5.00000e-01 
   4   -1.69120e+06              +/- 3.81612e+05              5.12571e-01 
   5   -4.11758e+06              +/- 2.05960e+06              5.59061e-01 
   6   -5.30245e+07                  0.00000e+00              5.00000e-01 
   7   -1.13500e+08                  0.00000e+00              5.00000e-01 
   8   -3.09896e+08                  0.00000e+00              5.00000e-01 
   9   -1.06752e+10                  0.00000e+00              5.00000e-01 
  10   -1.66587e+11                  0.00000e+00              5.00000e-01 
  11   -6.69470e+11                  0.00000e+00              5.00000e-01 
  12   -7.56746e+11                  0.00000e+00              5.00000e-01 
  13   -8.79789e+11                  0.00000e+00              5.00000e-01 

                      Zeros (Hz)
                      at V(VOUT,0)/V2

           Real                       Imaginary                 Qfactor

   1   -2.48985e-03                  0.00000e+00              5.00000e-01 
   2   -8.33525e+04                  0.00000e+00              5.00000e-01 
   3   -3.11774e+05                  0.00000e+00              5.00000e-01 
   4   -2.45245e+06              +/- 8.59863e+05              5.29842e-01 
   5    1.88896e+07              +/- 2.72865e+07              -8.78443e-01
   6   -4.90391e+07                  0.00000e+00              5.00000e-01 
   7   -8.89098e+07                  0.00000e+00              5.00000e-01 
   8   -1.59763e+08                  0.00000e+00              5.00000e-01 
   9   -1.06740e+10                  0.00000e+00              5.00000e-01 
  10   -1.66538e+11                  0.00000e+00              5.00000e-01 
  11   -6.68771e+11                  0.00000e+00              5.00000e-01 
  12   -8.97703e+11              +/- 4.62551e+09              5.00007e-01 

Constant factor =  3.19052e-02

DC gain =  1.00034e+00


Warning from spectre at 0 during PZ analysis `pz'.
    WARNING (UWI-8101): The specified waveform format 'psf' (improper context for requested action) could not be added. The simulator will ignore the waveform. Check the application programming interface (API) before running the simulation again.
    WARNING (UWI-8101): The specified waveform format 'psf' (improper context for requested action) could not be added. The simulator will ignore the waveform. Check the application programming interface (API) before running the simulation again.
    WARNING (UWI-8101): The specified waveform format 'psf' (improper context for requested action) could not be added. The simulator will ignore the waveform. Check the application programming interface (API) before running the simulation again.
    WARNING (UWI-8101): The specified waveform format 'psf' (improper context for requested action) could not be added. The simulator will ignore the waveform. Check the application programming interface (API) before running the simulation again.
    WARNING (UWI-8101): The specified waveform format 'psf' (improper context for requested action) could not be added. The simulator will ignore the waveform. Check the application programming interface (API) before running the simulation again.
        Further occurrences of this warning will be suppressed.

Accumulated DC solution time =            3.92389 ms.
Intrinsic pz analysis time =              19.419 ms.
Total time required for pz analysis `pz': CPU = 22.807 ms, elapsed = 24.626 ms, util. = 92.6%.
Time accumulated: CPU = 565.208 ms, elapsed = 1.24334 s.
Peak resident memory used = 208 Mbytes.


Notice from spectre.
    48 warnings suppressed.


************************************************
Transient Analysis `tran': time = (0 s -> 40 ms)
************************************************

Notice from spectre during IC analysis, during transient analysis `tran'.
    Bad pivoting is found during DC analysis. Option dc_pivot_check=yes is recommended for possible improvement of convergence.
Warning from spectre during check, during IC analysis, during transient analysis `tran'.
    WARNING (CMI-2943): Parameter checks have been ignored because the valid value for parameter 'trise' could not be found in 'I0.C4.C1'.
    WARNING (CMI-2943): Parameter checks have been ignored because the valid value for parameter 'trise' could not be found in 'I0.C7<0>_turbo_m4.C1'.
    WARNING (CMI-2943): Parameter checks have been ignored because the valid value for parameter 'trise' could not be found in 'I0.C9<0>_turbo_m3.C1'.
    WARNING (CMI-2943): Parameter checks have been ignored because the valid value for parameter 'trise' could not be found in 'I0.C6<0>_turbo_m2.C1'.
    WARNING (CMI-2943): Parameter checks have been ignored because the valid value for parameter 'trise' could not be found in 'I0.C8<0>_turbo_m8.C1'.
        Further occurrences of this warning will be suppressed.

Convergence achieved in 18 iterations.
DC simulation time: CPU = 2.303 ms, elapsed = 2.30384 ms.

Opening the PSF file ../psf/tran.tran.tran ...
Important parameter values:
    start = 0 s
    outputstart = 0 s
    stop = 40 ms
    step = 40 us
    maxstep = 400 us
    ic = all
    useprevic = no
    skipdc = no
    reltol = 10e-06
    abstol(V) = 1 uV
    abstol(I) = 1 pA
    temp = 27 C
    tnom = 27 C
    tempeffects = all
    errpreset = conservative
    method = gear2only
    lteratio = 10
    relref = alllocal
    cmin = 0 F
    gmin = 1 pS
    rabsshort = 1 mOhm


Notice from spectre during transient analysis `tran'.
    Multithreading is disabled due to the size of the design being too small.


Output and IC/nodeset summary:
                 save   7       (current)
                 save   76      (voltage)

    tran: time = 1.162 ms     (2.9 %), step = 219.6 us     (549 m%)
    tran: time = 3.111 ms    (7.78 %), step = 262.6 us     (657 m%)
    tran: time = 5.015 ms    (12.5 %), step = 400 us          (1 %)
    tran: time = 7.302 ms    (18.3 %), step = 342.4 us     (856 m%)
    tran: time = 9.014 ms    (22.5 %), step = 261.4 us     (653 m%)
    tran: time = 11.02 ms    (27.6 %), step = 249.4 us     (624 m%)
    tran: time = 13.11 ms    (32.8 %), step = 278 us       (695 m%)
    tran: time = 15.09 ms    (37.7 %), step = 399.2 us     (998 m%)
    tran: time = 17.05 ms    (42.6 %), step = 358.8 us     (897 m%)
    tran: time = 19.03 ms    (47.6 %), step = 259.7 us     (649 m%)
    tran: time = 21.03 ms    (52.6 %), step = 249.4 us     (623 m%)
    tran: time = 23.11 ms    (57.8 %), step = 271.5 us     (679 m%)
    tran: time = 25.04 ms    (62.6 %), step = 400 us          (1 %)
    tran: time = 27.32 ms    (68.3 %), step = 337.6 us     (844 m%)
    tran: time = 29.02 ms    (72.6 %), step = 260.9 us     (652 m%)
    tran: time = 31.03 ms    (77.6 %), step = 249.4 us     (624 m%)
    tran: time = 33.12 ms    (82.8 %), step = 278.2 us     (696 m%)
    tran: time = 35.1 ms     (87.8 %), step = 400 us          (1 %)
    tran: time = 37.06 ms    (92.7 %), step = 357.7 us     (894 m%)
    tran: time = 39.03 ms    (97.6 %), step = 259.5 us     (649 m%)
Number of accepted tran steps =             158

Maximum value achieved for any signal of each quantity: 
V: V(net2) = 3.3 V
I: I(V0:p) = 2.31 uA
Maximum value of each quantity, excluding Verilog-A modules or dangling current sources:
V: V(net3) = 1.6 V
I: I(V0:p) = 2.31 uA

~~~~~~~~~~~~~~~~~~~~~~~~~~~~~~~~~
Post-Transient Simulation Summary
~~~~~~~~~~~~~~~~~~~~~~~~~~~~~~~~~
   -   To further speed up simulation, consider
          add ++aps on command line
   -   Non-default settings that could significantly slow down simulation
          errpreset = conservative, default moderate
          reltol = 10e-06, default 100e-06 (conservative)
~~~~~~~~~~~~~~~~~~~~~~~~~~~~~~~~~


During simulation, the CPU load for active processors is :
         0 (7.3 %)       1 (100.0 %)     4 (2.4 %)       5 (1.6 %)
         7 (1.6 %)       8 (1.6 %)       9 (18.1 %)     10 (7.9 %)
        12 (12.7 %)     13 (15.9 %)     15 (3.2 %)      17 (40.8 %)
        18 (11.1 %)     19 (4.8 %)      20 (8.0 %)      21 (3.2 %)
        22 (3.2 %)      23 (9.4 %)      24 (100.0 %)    25 (89.1 %)
        26 (6.2 %)      27 (10.3 %)     28 (13.5 %)     29 (8.9 %)
        30 (3.1 %)      32 (2.4 %)      33 (4.7 %)      35 (3.2 %)
        36 (22.6 %)     37 (51.2 %)     38 (8.8 %)      39 (19.8 %)
        40 (15.1 %)     41 (13.8 %)     42 (22.8 %)     43 (5.6 %)
        44 (4.1 %)      45 (9.6 %)      46 (100.0 %)    47 (5.0 %)
        Total: 778.9%
Initial condition solution time: CPU = 2.337 ms, elapsed = 2.33889 ms.
Intrinsic tran analysis time:    CPU = 78.869 ms, elapsed = 80.2541 ms.
Total time required for tran analysis `tran': CPU = 83.742 ms, elapsed = 85.8099 ms, util. = 97.6%.
Time accumulated: CPU = 651.624 ms, elapsed = 1.33295 s.
Peak resident memory used = 212 Mbytes.


Notice from spectre.
    8 warnings suppressed.

finalTimeOP: writing operating point information to rawfile.

Opening the PSF file ../psf/finalTimeOP.info ...

********************************************
AC Analysis `ac': freq = (10 mHz -> 100 MHz)
********************************************

Notice from spectre during DC analysis, during AC analysis `ac'.
    Bad pivoting is found during DC analysis. Option dc_pivot_check=yes is recommended for possible improvement of convergence.
Warning from spectre during check, during DC analysis, during AC analysis `ac'.
    WARNING (CMI-2943): Parameter checks have been ignored because the valid value for parameter 'trise' could not be found in 'I0.C4.C1'.
    WARNING (CMI-2943): Parameter checks have been ignored because the valid value for parameter 'trise' could not be found in 'I0.C7<0>_turbo_m4.C1'.
    WARNING (CMI-2943): Parameter checks have been ignored because the valid value for parameter 'trise' could not be found in 'I0.C9<0>_turbo_m3.C1'.
    WARNING (CMI-2943): Parameter checks have been ignored because the valid value for parameter 'trise' could not be found in 'I0.C6<0>_turbo_m2.C1'.
    WARNING (CMI-2943): Parameter checks have been ignored because the valid value for parameter 'trise' could not be found in 'I0.C8<0>_turbo_m8.C1'.
        Further occurrences of this warning will be suppressed.

Convergence achieved in 18 iterations.
DC simulation time: CPU = 2.561 ms, elapsed = 2.56205 ms.

Opening the PSF file ../psf/ac.ac ...
    ac: freq = 18.48 mHz   (2.67 %), step = 1.365 mHz    (333 m%)
    ac: freq = 19.95 mHz      (3 %), step = 1.474 mHz    (333 m%)
    ac: freq = 21.54 mHz   (3.33 %), step = 1.592 mHz    (333 m%)
    ac: freq = 23.26 mHz   (3.67 %), step = 1.719 mHz    (333 m%)
    ac: freq = 25.12 mHz      (4 %), step = 1.856 mHz    (333 m%)
    ac: freq = 27.12 mHz   (4.33 %), step = 2.004 mHz    (333 m%)
    ac: freq = 29.29 mHz   (4.67 %), step = 2.164 mHz    (333 m%)
    ac: freq = 31.62 mHz      (5 %), step = 2.336 mHz    (333 m%)
    ac: freq = 34.15 mHz   (5.33 %), step = 2.523 mHz    (333 m%)
    ac: freq = 36.87 mHz   (5.67 %), step = 2.724 mHz    (333 m%)
    ac: freq = 39.81 mHz      (6 %), step = 2.941 mHz    (333 m%)
    ac: freq = 42.99 mHz   (6.33 %), step = 3.176 mHz    (333 m%)
    ac: freq = 46.42 mHz   (6.67 %), step = 3.429 mHz    (333 m%)
    ac: freq = 50.12 mHz      (7 %), step = 3.703 mHz    (333 m%)
    ac: freq = 54.12 mHz   (7.33 %), step = 3.998 mHz    (333 m%)
    ac: freq = 58.43 mHz   (7.67 %), step = 4.317 mHz    (333 m%)
    ac: freq = 63.1 mHz       (8 %), step = 4.662 mHz    (333 m%)
    ac: freq = 68.13 mHz   (8.33 %), step = 5.033 mHz    (333 m%)
    ac: freq = 73.56 mHz   (8.67 %), step = 5.435 mHz    (333 m%)
    ac: freq = 79.43 mHz      (9 %), step = 5.869 mHz    (333 m%)
    ac: freq = 85.77 mHz   (9.33 %), step = 6.337 mHz    (333 m%)
    ac: freq = 92.61 mHz   (9.67 %), step = 6.842 mHz    (333 m%)
    ac: freq = 100 mHz       (10 %), step = 7.388 mHz    (333 m%)
    ac: freq = 108 mHz     (10.3 %), step = 7.978 mHz    (333 m%)
    ac: freq = 116.6 mHz   (10.7 %), step = 8.614 mHz    (333 m%)
    ac: freq = 125.9 mHz     (11 %), step = 9.301 mHz    (333 m%)
    ac: freq = 135.9 mHz   (11.3 %), step = 10.04 mHz    (333 m%)
    ac: freq = 146.8 mHz   (11.7 %), step = 10.84 mHz    (333 m%)
    ac: freq = 158.5 mHz     (12 %), step = 11.71 mHz    (333 m%)
    ac: freq = 171.1 mHz   (12.3 %), step = 12.64 mHz    (333 m%)
    ac: freq = 184.8 mHz   (12.7 %), step = 13.65 mHz    (333 m%)
    ac: freq = 199.5 mHz     (13 %), step = 14.74 mHz    (333 m%)
    ac: freq = 215.4 mHz   (13.3 %), step = 15.92 mHz    (333 m%)
    ac: freq = 232.6 mHz   (13.7 %), step = 17.19 mHz    (333 m%)
    ac: freq = 251.2 mHz     (14 %), step = 18.56 mHz    (333 m%)
    ac: freq = 271.2 mHz   (14.3 %), step = 20.04 mHz    (333 m%)
    ac: freq = 292.9 mHz   (14.7 %), step = 21.64 mHz    (333 m%)
    ac: freq = 316.2 mHz     (15 %), step = 23.36 mHz    (333 m%)
    ac: freq = 341.5 mHz   (15.3 %), step = 25.23 mHz    (333 m%)
    ac: freq = 368.7 mHz   (15.7 %), step = 27.24 mHz    (333 m%)
    ac: freq = 398.1 mHz     (16 %), step = 29.41 mHz    (333 m%)
    ac: freq = 429.9 mHz   (16.3 %), step = 31.76 mHz    (333 m%)
    ac: freq = 464.2 mHz   (16.7 %), step = 34.29 mHz    (333 m%)
    ac: freq = 501.2 mHz     (17 %), step = 37.03 mHz    (333 m%)
    ac: freq = 541.2 mHz   (17.3 %), step = 39.98 mHz    (333 m%)
    ac: freq = 584.3 mHz   (17.7 %), step = 43.17 mHz    (333 m%)
    ac: freq = 631 mHz       (18 %), step = 46.62 mHz    (333 m%)
    ac: freq = 681.3 mHz   (18.3 %), step = 50.33 mHz    (333 m%)
    ac: freq = 735.6 mHz   (18.7 %), step = 54.35 mHz    (333 m%)
    ac: freq = 794.3 mHz     (19 %), step = 58.69 mHz    (333 m%)
    ac: freq = 857.7 mHz   (19.3 %), step = 63.37 mHz    (333 m%)
    ac: freq = 926.1 mHz   (19.7 %), step = 68.42 mHz    (333 m%)
    ac: freq = 1 Hz          (20 %), step = 73.88 mHz    (333 m%)
    ac: freq = 1.08 Hz     (20.3 %), step = 79.78 mHz    (333 m%)
    ac: freq = 1.166 Hz    (20.7 %), step = 86.14 mHz    (333 m%)
    ac: freq = 1.259 Hz      (21 %), step = 93.01 mHz    (333 m%)
    ac: freq = 1.359 Hz    (21.3 %), step = 100.4 mHz    (333 m%)
    ac: freq = 1.468 Hz    (21.7 %), step = 108.4 mHz    (333 m%)
    ac: freq = 1.585 Hz      (22 %), step = 117.1 mHz    (333 m%)
    ac: freq = 1.711 Hz    (22.3 %), step = 126.4 mHz    (333 m%)
    ac: freq = 1.848 Hz    (22.7 %), step = 136.5 mHz    (333 m%)
    ac: freq = 1.995 Hz      (23 %), step = 147.4 mHz    (333 m%)
    ac: freq = 2.154 Hz    (23.3 %), step = 159.2 mHz    (333 m%)
    ac: freq = 2.326 Hz    (23.7 %), step = 171.9 mHz    (333 m%)
    ac: freq = 2.512 Hz      (24 %), step = 185.6 mHz    (333 m%)
    ac: freq = 2.712 Hz    (24.3 %), step = 200.4 mHz    (333 m%)
    ac: freq = 2.929 Hz    (24.7 %), step = 216.4 mHz    (333 m%)
    ac: freq = 3.162 Hz      (25 %), step = 233.6 mHz    (333 m%)
    ac: freq = 3.415 Hz    (25.3 %), step = 252.3 mHz    (333 m%)
    ac: freq = 3.687 Hz    (25.7 %), step = 272.4 mHz    (333 m%)
    ac: freq = 3.981 Hz      (26 %), step = 294.1 mHz    (333 m%)
    ac: freq = 4.299 Hz    (26.3 %), step = 317.6 mHz    (333 m%)
    ac: freq = 4.642 Hz    (26.7 %), step = 342.9 mHz    (333 m%)
    ac: freq = 5.012 Hz      (27 %), step = 370.3 mHz    (333 m%)
    ac: freq = 5.412 Hz    (27.3 %), step = 399.8 mHz    (333 m%)
    ac: freq = 5.843 Hz    (27.7 %), step = 431.7 mHz    (333 m%)
    ac: freq = 6.31 Hz       (28 %), step = 466.2 mHz    (333 m%)
    ac: freq = 6.813 Hz    (28.3 %), step = 503.3 mHz    (333 m%)
    ac: freq = 7.356 Hz    (28.7 %), step = 543.5 mHz    (333 m%)
    ac: freq = 7.943 Hz      (29 %), step = 586.9 mHz    (333 m%)
    ac: freq = 8.577 Hz    (29.3 %), step = 633.7 mHz    (333 m%)
    ac: freq = 9.261 Hz    (29.7 %), step = 684.2 mHz    (333 m%)
    ac: freq = 10 Hz         (30 %), step = 738.8 mHz    (333 m%)
    ac: freq = 10.8 Hz     (30.3 %), step = 797.8 mHz    (333 m%)
    ac: freq = 11.66 Hz    (30.7 %), step = 861.4 mHz    (333 m%)
    ac: freq = 12.59 Hz      (31 %), step = 930.1 mHz    (333 m%)
    ac: freq = 13.59 Hz    (31.3 %), step = 1.004 Hz     (333 m%)
    ac: freq = 14.68 Hz    (31.7 %), step = 1.084 Hz     (333 m%)
    ac: freq = 15.85 Hz      (32 %), step = 1.171 Hz     (333 m%)
    ac: freq = 17.11 Hz    (32.3 %), step = 1.264 Hz     (333 m%)
    ac: freq = 18.48 Hz    (32.7 %), step = 1.365 Hz     (333 m%)
    ac: freq = 19.95 Hz      (33 %), step = 1.474 Hz     (333 m%)
    ac: freq = 21.54 Hz    (33.3 %), step = 1.592 Hz     (333 m%)
    ac: freq = 23.26 Hz    (33.7 %), step = 1.719 Hz     (333 m%)
    ac: freq = 25.12 Hz      (34 %), step = 1.856 Hz     (333 m%)
    ac: freq = 27.12 Hz    (34.3 %), step = 2.004 Hz     (333 m%)
    ac: freq = 29.29 Hz    (34.7 %), step = 2.164 Hz     (333 m%)
    ac: freq = 31.62 Hz      (35 %), step = 2.336 Hz     (333 m%)
    ac: freq = 34.15 Hz    (35.3 %), step = 2.523 Hz     (333 m%)
    ac: freq = 36.87 Hz    (35.7 %), step = 2.724 Hz     (333 m%)
    ac: freq = 39.81 Hz      (36 %), step = 2.941 Hz     (333 m%)
    ac: freq = 42.99 Hz    (36.3 %), step = 3.176 Hz     (333 m%)
    ac: freq = 46.42 Hz    (36.7 %), step = 3.429 Hz     (333 m%)
    ac: freq = 50.12 Hz      (37 %), step = 3.703 Hz     (333 m%)
    ac: freq = 54.12 Hz    (37.3 %), step = 3.998 Hz     (333 m%)
    ac: freq = 58.43 Hz    (37.7 %), step = 4.317 Hz     (333 m%)
    ac: freq = 63.1 Hz       (38 %), step = 4.662 Hz     (333 m%)
    ac: freq = 68.13 Hz    (38.3 %), step = 5.033 Hz     (333 m%)
    ac: freq = 73.56 Hz    (38.7 %), step = 5.435 Hz     (333 m%)
    ac: freq = 79.43 Hz      (39 %), step = 5.869 Hz     (333 m%)
    ac: freq = 85.77 Hz    (39.3 %), step = 6.337 Hz     (333 m%)
    ac: freq = 92.61 Hz    (39.7 %), step = 6.842 Hz     (333 m%)
    ac: freq = 100 Hz        (40 %), step = 7.388 Hz     (333 m%)
    ac: freq = 108 Hz      (40.3 %), step = 7.978 Hz     (333 m%)
    ac: freq = 116.6 Hz    (40.7 %), step = 8.614 Hz     (333 m%)
    ac: freq = 125.9 Hz      (41 %), step = 9.301 Hz     (333 m%)
    ac: freq = 135.9 Hz    (41.3 %), step = 10.04 Hz     (333 m%)
    ac: freq = 146.8 Hz    (41.7 %), step = 10.84 Hz     (333 m%)
    ac: freq = 158.5 Hz      (42 %), step = 11.71 Hz     (333 m%)
    ac: freq = 171.1 Hz    (42.3 %), step = 12.64 Hz     (333 m%)
    ac: freq = 184.8 Hz    (42.7 %), step = 13.65 Hz     (333 m%)
    ac: freq = 199.5 Hz      (43 %), step = 14.74 Hz     (333 m%)
    ac: freq = 215.4 Hz    (43.3 %), step = 15.92 Hz     (333 m%)
    ac: freq = 232.6 Hz    (43.7 %), step = 17.19 Hz     (333 m%)
    ac: freq = 251.2 Hz      (44 %), step = 18.56 Hz     (333 m%)
    ac: freq = 271.2 Hz    (44.3 %), step = 20.04 Hz     (333 m%)
    ac: freq = 292.9 Hz    (44.7 %), step = 21.64 Hz     (333 m%)
    ac: freq = 316.2 Hz      (45 %), step = 23.36 Hz     (333 m%)
    ac: freq = 341.5 Hz    (45.3 %), step = 25.23 Hz     (333 m%)
    ac: freq = 368.7 Hz    (45.7 %), step = 27.24 Hz     (333 m%)
    ac: freq = 398.1 Hz      (46 %), step = 29.41 Hz     (333 m%)
    ac: freq = 429.9 Hz    (46.3 %), step = 31.76 Hz     (333 m%)
    ac: freq = 464.2 Hz    (46.7 %), step = 34.29 Hz     (333 m%)
    ac: freq = 501.2 Hz      (47 %), step = 37.03 Hz     (333 m%)
    ac: freq = 541.2 Hz    (47.3 %), step = 39.98 Hz     (333 m%)
    ac: freq = 584.3 Hz    (47.7 %), step = 43.17 Hz     (333 m%)
    ac: freq = 631 Hz        (48 %), step = 46.62 Hz     (333 m%)
    ac: freq = 681.3 Hz    (48.3 %), step = 50.33 Hz     (333 m%)
    ac: freq = 735.6 Hz    (48.7 %), step = 54.35 Hz     (333 m%)
    ac: freq = 794.3 Hz      (49 %), step = 58.69 Hz     (333 m%)
    ac: freq = 857.7 Hz    (49.3 %), step = 63.37 Hz     (333 m%)
    ac: freq = 926.1 Hz    (49.7 %), step = 68.42 Hz     (333 m%)
    ac: freq = 1 kHz         (50 %), step = 73.88 Hz     (333 m%)
    ac: freq = 1.08 kHz    (50.3 %), step = 79.78 Hz     (333 m%)
    ac: freq = 1.166 kHz   (50.7 %), step = 86.14 Hz     (333 m%)
    ac: freq = 1.259 kHz     (51 %), step = 93.01 Hz     (333 m%)
    ac: freq = 1.359 kHz   (51.3 %), step = 100.4 Hz     (333 m%)
    ac: freq = 1.468 kHz   (51.7 %), step = 108.4 Hz     (333 m%)
    ac: freq = 1.585 kHz     (52 %), step = 117.1 Hz     (333 m%)
    ac: freq = 1.711 kHz   (52.3 %), step = 126.4 Hz     (333 m%)
    ac: freq = 1.848 kHz   (52.7 %), step = 136.5 Hz     (333 m%)
    ac: freq = 1.995 kHz     (53 %), step = 147.4 Hz     (333 m%)
    ac: freq = 2.154 kHz   (53.3 %), step = 159.2 Hz     (333 m%)
    ac: freq = 2.326 kHz   (53.7 %), step = 171.9 Hz     (333 m%)
    ac: freq = 2.512 kHz     (54 %), step = 185.6 Hz     (333 m%)
    ac: freq = 2.712 kHz   (54.3 %), step = 200.4 Hz     (333 m%)
    ac: freq = 2.929 kHz   (54.7 %), step = 216.4 Hz     (333 m%)
    ac: freq = 3.162 kHz     (55 %), step = 233.6 Hz     (333 m%)
    ac: freq = 3.415 kHz   (55.3 %), step = 252.3 Hz     (333 m%)
    ac: freq = 3.687 kHz   (55.7 %), step = 272.4 Hz     (333 m%)
    ac: freq = 3.981 kHz     (56 %), step = 294.1 Hz     (333 m%)
    ac: freq = 4.299 kHz   (56.3 %), step = 317.6 Hz     (333 m%)
    ac: freq = 4.642 kHz   (56.7 %), step = 342.9 Hz     (333 m%)
    ac: freq = 5.012 kHz     (57 %), step = 370.3 Hz     (333 m%)
    ac: freq = 5.412 kHz   (57.3 %), step = 399.8 Hz     (333 m%)
    ac: freq = 5.843 kHz   (57.7 %), step = 431.7 Hz     (333 m%)
    ac: freq = 6.31 kHz      (58 %), step = 466.2 Hz     (333 m%)
    ac: freq = 6.813 kHz   (58.3 %), step = 503.3 Hz     (333 m%)
    ac: freq = 7.356 kHz   (58.7 %), step = 543.5 Hz     (333 m%)
    ac: freq = 7.943 kHz     (59 %), step = 586.9 Hz     (333 m%)
    ac: freq = 8.577 kHz   (59.3 %), step = 633.7 Hz     (333 m%)
    ac: freq = 9.261 kHz   (59.7 %), step = 684.2 Hz     (333 m%)
    ac: freq = 10 kHz        (60 %), step = 738.8 Hz     (333 m%)
    ac: freq = 10.8 kHz    (60.3 %), step = 797.8 Hz     (333 m%)
    ac: freq = 11.66 kHz   (60.7 %), step = 861.4 Hz     (333 m%)
    ac: freq = 12.59 kHz     (61 %), step = 930.1 Hz     (333 m%)
    ac: freq = 13.59 kHz   (61.3 %), step = 1.004 kHz    (333 m%)
    ac: freq = 14.68 kHz   (61.7 %), step = 1.084 kHz    (333 m%)
    ac: freq = 15.85 kHz     (62 %), step = 1.171 kHz    (333 m%)
    ac: freq = 17.11 kHz   (62.3 %), step = 1.264 kHz    (333 m%)
    ac: freq = 18.48 kHz   (62.7 %), step = 1.365 kHz    (333 m%)
    ac: freq = 19.95 kHz     (63 %), step = 1.474 kHz    (333 m%)
    ac: freq = 21.54 kHz   (63.3 %), step = 1.592 kHz    (333 m%)
    ac: freq = 23.26 kHz   (63.7 %), step = 1.719 kHz    (333 m%)
    ac: freq = 25.12 kHz     (64 %), step = 1.856 kHz    (333 m%)
    ac: freq = 27.12 kHz   (64.3 %), step = 2.004 kHz    (333 m%)
    ac: freq = 29.29 kHz   (64.7 %), step = 2.164 kHz    (333 m%)
    ac: freq = 31.62 kHz     (65 %), step = 2.336 kHz    (333 m%)
    ac: freq = 34.15 kHz   (65.3 %), step = 2.523 kHz    (333 m%)
    ac: freq = 36.87 kHz   (65.7 %), step = 2.724 kHz    (333 m%)
    ac: freq = 39.81 kHz     (66 %), step = 2.941 kHz    (333 m%)
    ac: freq = 42.99 kHz   (66.3 %), step = 3.176 kHz    (333 m%)
    ac: freq = 46.42 kHz   (66.7 %), step = 3.429 kHz    (333 m%)
    ac: freq = 50.12 kHz     (67 %), step = 3.703 kHz    (333 m%)
    ac: freq = 54.12 kHz   (67.3 %), step = 3.998 kHz    (333 m%)
    ac: freq = 58.43 kHz   (67.7 %), step = 4.317 kHz    (333 m%)
    ac: freq = 63.1 kHz      (68 %), step = 4.662 kHz    (333 m%)
    ac: freq = 68.13 kHz   (68.3 %), step = 5.033 kHz    (333 m%)
    ac: freq = 73.56 kHz   (68.7 %), step = 5.435 kHz    (333 m%)
    ac: freq = 79.43 kHz     (69 %), step = 5.869 kHz    (333 m%)
    ac: freq = 85.77 kHz   (69.3 %), step = 6.337 kHz    (333 m%)
    ac: freq = 92.61 kHz   (69.7 %), step = 6.842 kHz    (333 m%)
    ac: freq = 100 kHz       (70 %), step = 7.388 kHz    (333 m%)
    ac: freq = 108 kHz     (70.3 %), step = 7.978 kHz    (333 m%)
    ac: freq = 116.6 kHz   (70.7 %), step = 8.614 kHz    (333 m%)
    ac: freq = 125.9 kHz     (71 %), step = 9.301 kHz    (333 m%)
    ac: freq = 135.9 kHz   (71.3 %), step = 10.04 kHz    (333 m%)
    ac: freq = 146.8 kHz   (71.7 %), step = 10.84 kHz    (333 m%)
    ac: freq = 158.5 kHz     (72 %), step = 11.71 kHz    (333 m%)
    ac: freq = 171.1 kHz   (72.3 %), step = 12.64 kHz    (333 m%)
    ac: freq = 184.8 kHz   (72.7 %), step = 13.65 kHz    (333 m%)
    ac: freq = 199.5 kHz     (73 %), step = 14.74 kHz    (333 m%)
    ac: freq = 215.4 kHz   (73.3 %), step = 15.92 kHz    (333 m%)
    ac: freq = 232.6 kHz   (73.7 %), step = 17.19 kHz    (333 m%)
    ac: freq = 251.2 kHz     (74 %), step = 18.56 kHz    (333 m%)
    ac: freq = 271.2 kHz   (74.3 %), step = 20.04 kHz    (333 m%)
    ac: freq = 292.9 kHz   (74.7 %), step = 21.64 kHz    (333 m%)
    ac: freq = 316.2 kHz     (75 %), step = 23.36 kHz    (333 m%)
    ac: freq = 341.5 kHz   (75.3 %), step = 25.23 kHz    (333 m%)
    ac: freq = 368.7 kHz   (75.7 %), step = 27.24 kHz    (333 m%)
    ac: freq = 398.1 kHz     (76 %), step = 29.41 kHz    (333 m%)
    ac: freq = 429.9 kHz   (76.3 %), step = 31.76 kHz    (333 m%)
    ac: freq = 464.2 kHz   (76.7 %), step = 34.29 kHz    (333 m%)
    ac: freq = 501.2 kHz     (77 %), step = 37.03 kHz    (333 m%)
    ac: freq = 541.2 kHz   (77.3 %), step = 39.98 kHz    (333 m%)
    ac: freq = 584.3 kHz   (77.7 %), step = 43.17 kHz    (333 m%)
    ac: freq = 631 kHz       (78 %), step = 46.62 kHz    (333 m%)
    ac: freq = 681.3 kHz   (78.3 %), step = 50.33 kHz    (333 m%)
    ac: freq = 735.6 kHz   (78.7 %), step = 54.35 kHz    (333 m%)
    ac: freq = 794.3 kHz     (79 %), step = 58.69 kHz    (333 m%)
    ac: freq = 857.7 kHz   (79.3 %), step = 63.37 kHz    (333 m%)
    ac: freq = 926.1 kHz   (79.7 %), step = 68.42 kHz    (333 m%)
    ac: freq = 1 MHz         (80 %), step = 73.88 kHz    (333 m%)
    ac: freq = 1.08 MHz    (80.3 %), step = 79.78 kHz    (333 m%)
    ac: freq = 1.166 MHz   (80.7 %), step = 86.14 kHz    (333 m%)
    ac: freq = 1.259 MHz     (81 %), step = 93.01 kHz    (333 m%)
    ac: freq = 1.359 MHz   (81.3 %), step = 100.4 kHz    (333 m%)
    ac: freq = 1.468 MHz   (81.7 %), step = 108.4 kHz    (333 m%)
    ac: freq = 1.585 MHz     (82 %), step = 117.1 kHz    (333 m%)
    ac: freq = 1.711 MHz   (82.3 %), step = 126.4 kHz    (333 m%)
    ac: freq = 1.848 MHz   (82.7 %), step = 136.5 kHz    (333 m%)
    ac: freq = 1.995 MHz     (83 %), step = 147.4 kHz    (333 m%)
    ac: freq = 2.154 MHz   (83.3 %), step = 159.2 kHz    (333 m%)
    ac: freq = 2.326 MHz   (83.7 %), step = 171.9 kHz    (333 m%)
    ac: freq = 2.512 MHz     (84 %), step = 185.6 kHz    (333 m%)
    ac: freq = 2.712 MHz   (84.3 %), step = 200.4 kHz    (333 m%)
    ac: freq = 2.929 MHz   (84.7 %), step = 216.4 kHz    (333 m%)
    ac: freq = 3.162 MHz     (85 %), step = 233.6 kHz    (333 m%)
    ac: freq = 3.415 MHz   (85.3 %), step = 252.3 kHz    (333 m%)
    ac: freq = 3.687 MHz   (85.7 %), step = 272.4 kHz    (333 m%)
    ac: freq = 3.981 MHz     (86 %), step = 294.1 kHz    (333 m%)
    ac: freq = 4.299 MHz   (86.3 %), step = 317.6 kHz    (333 m%)
    ac: freq = 4.642 MHz   (86.7 %), step = 342.9 kHz    (333 m%)
    ac: freq = 5.012 MHz     (87 %), step = 370.3 kHz    (333 m%)
    ac: freq = 5.412 MHz   (87.3 %), step = 399.8 kHz    (333 m%)
    ac: freq = 5.843 MHz   (87.7 %), step = 431.7 kHz    (333 m%)
    ac: freq = 6.31 MHz      (88 %), step = 466.2 kHz    (333 m%)
    ac: freq = 6.813 MHz   (88.3 %), step = 503.3 kHz    (333 m%)
    ac: freq = 7.356 MHz   (88.7 %), step = 543.5 kHz    (333 m%)
    ac: freq = 7.943 MHz     (89 %), step = 586.9 kHz    (333 m%)
    ac: freq = 8.577 MHz   (89.3 %), step = 633.7 kHz    (333 m%)
    ac: freq = 9.261 MHz   (89.7 %), step = 684.2 kHz    (333 m%)
    ac: freq = 10 MHz        (90 %), step = 738.8 kHz    (333 m%)
    ac: freq = 10.8 MHz    (90.3 %), step = 797.8 kHz    (333 m%)
    ac: freq = 11.66 MHz   (90.7 %), step = 861.4 kHz    (333 m%)
    ac: freq = 12.59 MHz     (91 %), step = 930.1 kHz    (333 m%)
    ac: freq = 13.59 MHz   (91.3 %), step = 1.004 MHz    (333 m%)
    ac: freq = 14.68 MHz   (91.7 %), step = 1.084 MHz    (333 m%)
    ac: freq = 15.85 MHz     (92 %), step = 1.171 MHz    (333 m%)
    ac: freq = 17.11 MHz   (92.3 %), step = 1.264 MHz    (333 m%)
    ac: freq = 18.48 MHz   (92.7 %), step = 1.365 MHz    (333 m%)
    ac: freq = 19.95 MHz     (93 %), step = 1.474 MHz    (333 m%)
    ac: freq = 21.54 MHz   (93.3 %), step = 1.592 MHz    (333 m%)
    ac: freq = 23.26 MHz   (93.7 %), step = 1.719 MHz    (333 m%)
    ac: freq = 25.12 MHz     (94 %), step = 1.856 MHz    (333 m%)
    ac: freq = 27.12 MHz   (94.3 %), step = 2.004 MHz    (333 m%)
    ac: freq = 29.29 MHz   (94.7 %), step = 2.164 MHz    (333 m%)
    ac: freq = 31.62 MHz     (95 %), step = 2.336 MHz    (333 m%)
    ac: freq = 34.15 MHz   (95.3 %), step = 2.523 MHz    (333 m%)
    ac: freq = 36.87 MHz   (95.7 %), step = 2.724 MHz    (333 m%)
    ac: freq = 39.81 MHz     (96 %), step = 2.941 MHz    (333 m%)
    ac: freq = 42.99 MHz   (96.3 %), step = 3.176 MHz    (333 m%)
    ac: freq = 46.42 MHz   (96.7 %), step = 3.429 MHz    (333 m%)
    ac: freq = 50.12 MHz     (97 %), step = 3.703 MHz    (333 m%)
    ac: freq = 54.12 MHz   (97.3 %), step = 3.998 MHz    (333 m%)
    ac: freq = 58.43 MHz   (97.7 %), step = 4.317 MHz    (333 m%)
    ac: freq = 63.1 MHz      (98 %), step = 4.662 MHz    (333 m%)
    ac: freq = 68.13 MHz   (98.3 %), step = 5.033 MHz    (333 m%)
    ac: freq = 73.56 MHz   (98.7 %), step = 5.435 MHz    (333 m%)
    ac: freq = 79.43 MHz     (99 %), step = 5.869 MHz    (333 m%)
    ac: freq = 85.77 MHz   (99.3 %), step = 6.337 MHz    (333 m%)
    ac: freq = 92.61 MHz   (99.7 %), step = 6.842 MHz    (333 m%)
    ac: freq = 100 MHz      (100 %), step = 7.388 MHz    (333 m%)
Accumulated DC solution time =            2.60901 ms.
Intrinsic ac analysis time =              61.8632 ms.
Total time required for ac analysis `ac': CPU = 64.038 ms, elapsed = 65.613 ms, util. = 97.6%.
Time accumulated: CPU = 721.578 ms, elapsed = 1.4071 s.
Peak resident memory used = 212 Mbytes.


Notice from spectre.
    8 warnings suppressed.


**************************************************
Noise Analysis `noise': freq = (10 mHz -> 100 MHz)
**************************************************

Notice from spectre during Noise analysis `noise'.
    Operating points will not be recomputed: the circuit and conditions were not changed since previous analysis.


Opening the PSF file ../psf/noise.noise ...
    noise: freq = 18.48 mHz   (2.67 %), step = 1.365 mHz    (333 m%)
    noise: freq = 19.95 mHz      (3 %), step = 1.474 mHz    (333 m%)
    noise: freq = 21.54 mHz   (3.33 %), step = 1.592 mHz    (333 m%)
    noise: freq = 23.26 mHz   (3.67 %), step = 1.719 mHz    (333 m%)
    noise: freq = 25.12 mHz      (4 %), step = 1.856 mHz    (333 m%)
    noise: freq = 27.12 mHz   (4.33 %), step = 2.004 mHz    (333 m%)
    noise: freq = 29.29 mHz   (4.67 %), step = 2.164 mHz    (333 m%)
    noise: freq = 31.62 mHz      (5 %), step = 2.336 mHz    (333 m%)
    noise: freq = 34.15 mHz   (5.33 %), step = 2.523 mHz    (333 m%)
    noise: freq = 36.87 mHz   (5.67 %), step = 2.724 mHz    (333 m%)
    noise: freq = 39.81 mHz      (6 %), step = 2.941 mHz    (333 m%)
    noise: freq = 42.99 mHz   (6.33 %), step = 3.176 mHz    (333 m%)
    noise: freq = 46.42 mHz   (6.67 %), step = 3.429 mHz    (333 m%)
    noise: freq = 50.12 mHz      (7 %), step = 3.703 mHz    (333 m%)
    noise: freq = 54.12 mHz   (7.33 %), step = 3.998 mHz    (333 m%)
    noise: freq = 58.43 mHz   (7.67 %), step = 4.317 mHz    (333 m%)
    noise: freq = 63.1 mHz       (8 %), step = 4.662 mHz    (333 m%)
    noise: freq = 68.13 mHz   (8.33 %), step = 5.033 mHz    (333 m%)
    noise: freq = 73.56 mHz   (8.67 %), step = 5.435 mHz    (333 m%)
    noise: freq = 79.43 mHz      (9 %), step = 5.869 mHz    (333 m%)
    noise: freq = 85.77 mHz   (9.33 %), step = 6.337 mHz    (333 m%)
    noise: freq = 92.61 mHz   (9.67 %), step = 6.842 mHz    (333 m%)
    noise: freq = 100 mHz       (10 %), step = 7.388 mHz    (333 m%)
    noise: freq = 108 mHz     (10.3 %), step = 7.978 mHz    (333 m%)
    noise: freq = 116.6 mHz   (10.7 %), step = 8.614 mHz    (333 m%)
    noise: freq = 125.9 mHz     (11 %), step = 9.301 mHz    (333 m%)
    noise: freq = 135.9 mHz   (11.3 %), step = 10.04 mHz    (333 m%)
    noise: freq = 146.8 mHz   (11.7 %), step = 10.84 mHz    (333 m%)
    noise: freq = 158.5 mHz     (12 %), step = 11.71 mHz    (333 m%)
    noise: freq = 171.1 mHz   (12.3 %), step = 12.64 mHz    (333 m%)
    noise: freq = 184.8 mHz   (12.7 %), step = 13.65 mHz    (333 m%)
    noise: freq = 199.5 mHz     (13 %), step = 14.74 mHz    (333 m%)
    noise: freq = 215.4 mHz   (13.3 %), step = 15.92 mHz    (333 m%)
    noise: freq = 232.6 mHz   (13.7 %), step = 17.19 mHz    (333 m%)
    noise: freq = 251.2 mHz     (14 %), step = 18.56 mHz    (333 m%)
    noise: freq = 271.2 mHz   (14.3 %), step = 20.04 mHz    (333 m%)
    noise: freq = 292.9 mHz   (14.7 %), step = 21.64 mHz    (333 m%)
    noise: freq = 316.2 mHz     (15 %), step = 23.36 mHz    (333 m%)
    noise: freq = 341.5 mHz   (15.3 %), step = 25.23 mHz    (333 m%)
    noise: freq = 368.7 mHz   (15.7 %), step = 27.24 mHz    (333 m%)
    noise: freq = 398.1 mHz     (16 %), step = 29.41 mHz    (333 m%)
    noise: freq = 429.9 mHz   (16.3 %), step = 31.76 mHz    (333 m%)
    noise: freq = 464.2 mHz   (16.7 %), step = 34.29 mHz    (333 m%)
    noise: freq = 501.2 mHz     (17 %), step = 37.03 mHz    (333 m%)
    noise: freq = 541.2 mHz   (17.3 %), step = 39.98 mHz    (333 m%)
    noise: freq = 584.3 mHz   (17.7 %), step = 43.17 mHz    (333 m%)
    noise: freq = 631 mHz       (18 %), step = 46.62 mHz    (333 m%)
    noise: freq = 681.3 mHz   (18.3 %), step = 50.33 mHz    (333 m%)
    noise: freq = 735.6 mHz   (18.7 %), step = 54.35 mHz    (333 m%)
    noise: freq = 794.3 mHz     (19 %), step = 58.69 mHz    (333 m%)
    noise: freq = 857.7 mHz   (19.3 %), step = 63.37 mHz    (333 m%)
    noise: freq = 926.1 mHz   (19.7 %), step = 68.42 mHz    (333 m%)
    noise: freq = 1 Hz          (20 %), step = 73.88 mHz    (333 m%)
    noise: freq = 1.08 Hz     (20.3 %), step = 79.78 mHz    (333 m%)
    noise: freq = 1.166 Hz    (20.7 %), step = 86.14 mHz    (333 m%)
    noise: freq = 1.259 Hz      (21 %), step = 93.01 mHz    (333 m%)
    noise: freq = 1.359 Hz    (21.3 %), step = 100.4 mHz    (333 m%)
    noise: freq = 1.468 Hz    (21.7 %), step = 108.4 mHz    (333 m%)
    noise: freq = 1.585 Hz      (22 %), step = 117.1 mHz    (333 m%)
    noise: freq = 1.711 Hz    (22.3 %), step = 126.4 mHz    (333 m%)
    noise: freq = 1.848 Hz    (22.7 %), step = 136.5 mHz    (333 m%)
    noise: freq = 1.995 Hz      (23 %), step = 147.4 mHz    (333 m%)
    noise: freq = 2.154 Hz    (23.3 %), step = 159.2 mHz    (333 m%)
    noise: freq = 2.326 Hz    (23.7 %), step = 171.9 mHz    (333 m%)
    noise: freq = 2.512 Hz      (24 %), step = 185.6 mHz    (333 m%)
    noise: freq = 2.712 Hz    (24.3 %), step = 200.4 mHz    (333 m%)
    noise: freq = 2.929 Hz    (24.7 %), step = 216.4 mHz    (333 m%)
    noise: freq = 3.162 Hz      (25 %), step = 233.6 mHz    (333 m%)
    noise: freq = 3.415 Hz    (25.3 %), step = 252.3 mHz    (333 m%)
    noise: freq = 3.687 Hz    (25.7 %), step = 272.4 mHz    (333 m%)
    noise: freq = 3.981 Hz      (26 %), step = 294.1 mHz    (333 m%)
    noise: freq = 4.299 Hz    (26.3 %), step = 317.6 mHz    (333 m%)
    noise: freq = 4.642 Hz    (26.7 %), step = 342.9 mHz    (333 m%)
    noise: freq = 5.012 Hz      (27 %), step = 370.3 mHz    (333 m%)
    noise: freq = 5.412 Hz    (27.3 %), step = 399.8 mHz    (333 m%)
    noise: freq = 5.843 Hz    (27.7 %), step = 431.7 mHz    (333 m%)
    noise: freq = 6.31 Hz       (28 %), step = 466.2 mHz    (333 m%)
    noise: freq = 6.813 Hz    (28.3 %), step = 503.3 mHz    (333 m%)
    noise: freq = 7.356 Hz    (28.7 %), step = 543.5 mHz    (333 m%)
    noise: freq = 7.943 Hz      (29 %), step = 586.9 mHz    (333 m%)
    noise: freq = 8.577 Hz    (29.3 %), step = 633.7 mHz    (333 m%)
    noise: freq = 9.261 Hz    (29.7 %), step = 684.2 mHz    (333 m%)
    noise: freq = 10 Hz         (30 %), step = 738.8 mHz    (333 m%)
    noise: freq = 10.8 Hz     (30.3 %), step = 797.8 mHz    (333 m%)
    noise: freq = 11.66 Hz    (30.7 %), step = 861.4 mHz    (333 m%)
    noise: freq = 12.59 Hz      (31 %), step = 930.1 mHz    (333 m%)
    noise: freq = 13.59 Hz    (31.3 %), step = 1.004 Hz     (333 m%)
    noise: freq = 14.68 Hz    (31.7 %), step = 1.084 Hz     (333 m%)
    noise: freq = 15.85 Hz      (32 %), step = 1.171 Hz     (333 m%)
    noise: freq = 17.11 Hz    (32.3 %), step = 1.264 Hz     (333 m%)
    noise: freq = 18.48 Hz    (32.7 %), step = 1.365 Hz     (333 m%)
    noise: freq = 19.95 Hz      (33 %), step = 1.474 Hz     (333 m%)
    noise: freq = 21.54 Hz    (33.3 %), step = 1.592 Hz     (333 m%)
    noise: freq = 23.26 Hz    (33.7 %), step = 1.719 Hz     (333 m%)
    noise: freq = 25.12 Hz      (34 %), step = 1.856 Hz     (333 m%)
    noise: freq = 27.12 Hz    (34.3 %), step = 2.004 Hz     (333 m%)
    noise: freq = 29.29 Hz    (34.7 %), step = 2.164 Hz     (333 m%)
    noise: freq = 31.62 Hz      (35 %), step = 2.336 Hz     (333 m%)
    noise: freq = 34.15 Hz    (35.3 %), step = 2.523 Hz     (333 m%)
    noise: freq = 36.87 Hz    (35.7 %), step = 2.724 Hz     (333 m%)
    noise: freq = 39.81 Hz      (36 %), step = 2.941 Hz     (333 m%)
    noise: freq = 42.99 Hz    (36.3 %), step = 3.176 Hz     (333 m%)
    noise: freq = 46.42 Hz    (36.7 %), step = 3.429 Hz     (333 m%)
    noise: freq = 50.12 Hz      (37 %), step = 3.703 Hz     (333 m%)
    noise: freq = 54.12 Hz    (37.3 %), step = 3.998 Hz     (333 m%)
    noise: freq = 58.43 Hz    (37.7 %), step = 4.317 Hz     (333 m%)
    noise: freq = 63.1 Hz       (38 %), step = 4.662 Hz     (333 m%)
    noise: freq = 68.13 Hz    (38.3 %), step = 5.033 Hz     (333 m%)
    noise: freq = 73.56 Hz    (38.7 %), step = 5.435 Hz     (333 m%)
    noise: freq = 79.43 Hz      (39 %), step = 5.869 Hz     (333 m%)
    noise: freq = 85.77 Hz    (39.3 %), step = 6.337 Hz     (333 m%)
    noise: freq = 92.61 Hz    (39.7 %), step = 6.842 Hz     (333 m%)
    noise: freq = 100 Hz        (40 %), step = 7.388 Hz     (333 m%)
    noise: freq = 108 Hz      (40.3 %), step = 7.978 Hz     (333 m%)
    noise: freq = 116.6 Hz    (40.7 %), step = 8.614 Hz     (333 m%)
    noise: freq = 125.9 Hz      (41 %), step = 9.301 Hz     (333 m%)
    noise: freq = 135.9 Hz    (41.3 %), step = 10.04 Hz     (333 m%)
    noise: freq = 146.8 Hz    (41.7 %), step = 10.84 Hz     (333 m%)
    noise: freq = 158.5 Hz      (42 %), step = 11.71 Hz     (333 m%)
    noise: freq = 171.1 Hz    (42.3 %), step = 12.64 Hz     (333 m%)
    noise: freq = 184.8 Hz    (42.7 %), step = 13.65 Hz     (333 m%)
    noise: freq = 199.5 Hz      (43 %), step = 14.74 Hz     (333 m%)
    noise: freq = 215.4 Hz    (43.3 %), step = 15.92 Hz     (333 m%)
    noise: freq = 232.6 Hz    (43.7 %), step = 17.19 Hz     (333 m%)
    noise: freq = 251.2 Hz      (44 %), step = 18.56 Hz     (333 m%)
    noise: freq = 271.2 Hz    (44.3 %), step = 20.04 Hz     (333 m%)
    noise: freq = 292.9 Hz    (44.7 %), step = 21.64 Hz     (333 m%)
    noise: freq = 316.2 Hz      (45 %), step = 23.36 Hz     (333 m%)
    noise: freq = 341.5 Hz    (45.3 %), step = 25.23 Hz     (333 m%)
    noise: freq = 368.7 Hz    (45.7 %), step = 27.24 Hz     (333 m%)
    noise: freq = 398.1 Hz      (46 %), step = 29.41 Hz     (333 m%)
    noise: freq = 429.9 Hz    (46.3 %), step = 31.76 Hz     (333 m%)
    noise: freq = 464.2 Hz    (46.7 %), step = 34.29 Hz     (333 m%)
    noise: freq = 501.2 Hz      (47 %), step = 37.03 Hz     (333 m%)
    noise: freq = 541.2 Hz    (47.3 %), step = 39.98 Hz     (333 m%)
    noise: freq = 584.3 Hz    (47.7 %), step = 43.17 Hz     (333 m%)
    noise: freq = 631 Hz        (48 %), step = 46.62 Hz     (333 m%)
    noise: freq = 681.3 Hz    (48.3 %), step = 50.33 Hz     (333 m%)
    noise: freq = 735.6 Hz    (48.7 %), step = 54.35 Hz     (333 m%)
    noise: freq = 794.3 Hz      (49 %), step = 58.69 Hz     (333 m%)
    noise: freq = 857.7 Hz    (49.3 %), step = 63.37 Hz     (333 m%)
    noise: freq = 926.1 Hz    (49.7 %), step = 68.42 Hz     (333 m%)
    noise: freq = 1 kHz         (50 %), step = 73.88 Hz     (333 m%)
    noise: freq = 1.08 kHz    (50.3 %), step = 79.78 Hz     (333 m%)
    noise: freq = 1.166 kHz   (50.7 %), step = 86.14 Hz     (333 m%)
    noise: freq = 1.259 kHz     (51 %), step = 93.01 Hz     (333 m%)
    noise: freq = 1.359 kHz   (51.3 %), step = 100.4 Hz     (333 m%)
    noise: freq = 1.468 kHz   (51.7 %), step = 108.4 Hz     (333 m%)
    noise: freq = 1.585 kHz     (52 %), step = 117.1 Hz     (333 m%)
    noise: freq = 1.711 kHz   (52.3 %), step = 126.4 Hz     (333 m%)
    noise: freq = 1.848 kHz   (52.7 %), step = 136.5 Hz     (333 m%)
    noise: freq = 1.995 kHz     (53 %), step = 147.4 Hz     (333 m%)
    noise: freq = 2.154 kHz   (53.3 %), step = 159.2 Hz     (333 m%)
    noise: freq = 2.326 kHz   (53.7 %), step = 171.9 Hz     (333 m%)
    noise: freq = 2.512 kHz     (54 %), step = 185.6 Hz     (333 m%)
    noise: freq = 2.712 kHz   (54.3 %), step = 200.4 Hz     (333 m%)
    noise: freq = 2.929 kHz   (54.7 %), step = 216.4 Hz     (333 m%)
    noise: freq = 3.162 kHz     (55 %), step = 233.6 Hz     (333 m%)
    noise: freq = 3.415 kHz   (55.3 %), step = 252.3 Hz     (333 m%)
    noise: freq = 3.687 kHz   (55.7 %), step = 272.4 Hz     (333 m%)
    noise: freq = 3.981 kHz     (56 %), step = 294.1 Hz     (333 m%)
    noise: freq = 4.299 kHz   (56.3 %), step = 317.6 Hz     (333 m%)
    noise: freq = 4.642 kHz   (56.7 %), step = 342.9 Hz     (333 m%)
    noise: freq = 5.012 kHz     (57 %), step = 370.3 Hz     (333 m%)
    noise: freq = 5.412 kHz   (57.3 %), step = 399.8 Hz     (333 m%)
    noise: freq = 5.843 kHz   (57.7 %), step = 431.7 Hz     (333 m%)
    noise: freq = 6.31 kHz      (58 %), step = 466.2 Hz     (333 m%)
    noise: freq = 6.813 kHz   (58.3 %), step = 503.3 Hz     (333 m%)
    noise: freq = 7.356 kHz   (58.7 %), step = 543.5 Hz     (333 m%)
    noise: freq = 7.943 kHz     (59 %), step = 586.9 Hz     (333 m%)
    noise: freq = 8.577 kHz   (59.3 %), step = 633.7 Hz     (333 m%)
    noise: freq = 9.261 kHz   (59.7 %), step = 684.2 Hz     (333 m%)
    noise: freq = 10 kHz        (60 %), step = 738.8 Hz     (333 m%)
    noise: freq = 10.8 kHz    (60.3 %), step = 797.8 Hz     (333 m%)
    noise: freq = 11.66 kHz   (60.7 %), step = 861.4 Hz     (333 m%)
    noise: freq = 12.59 kHz     (61 %), step = 930.1 Hz     (333 m%)
    noise: freq = 13.59 kHz   (61.3 %), step = 1.004 kHz    (333 m%)
    noise: freq = 14.68 kHz   (61.7 %), step = 1.084 kHz    (333 m%)
    noise: freq = 15.85 kHz     (62 %), step = 1.171 kHz    (333 m%)
    noise: freq = 17.11 kHz   (62.3 %), step = 1.264 kHz    (333 m%)
    noise: freq = 18.48 kHz   (62.7 %), step = 1.365 kHz    (333 m%)
    noise: freq = 19.95 kHz     (63 %), step = 1.474 kHz    (333 m%)
    noise: freq = 21.54 kHz   (63.3 %), step = 1.592 kHz    (333 m%)
    noise: freq = 23.26 kHz   (63.7 %), step = 1.719 kHz    (333 m%)
    noise: freq = 25.12 kHz     (64 %), step = 1.856 kHz    (333 m%)
    noise: freq = 27.12 kHz   (64.3 %), step = 2.004 kHz    (333 m%)
    noise: freq = 29.29 kHz   (64.7 %), step = 2.164 kHz    (333 m%)
    noise: freq = 31.62 kHz     (65 %), step = 2.336 kHz    (333 m%)
    noise: freq = 34.15 kHz   (65.3 %), step = 2.523 kHz    (333 m%)
    noise: freq = 36.87 kHz   (65.7 %), step = 2.724 kHz    (333 m%)
    noise: freq = 39.81 kHz     (66 %), step = 2.941 kHz    (333 m%)
    noise: freq = 42.99 kHz   (66.3 %), step = 3.176 kHz    (333 m%)
    noise: freq = 46.42 kHz   (66.7 %), step = 3.429 kHz    (333 m%)
    noise: freq = 50.12 kHz     (67 %), step = 3.703 kHz    (333 m%)
    noise: freq = 54.12 kHz   (67.3 %), step = 3.998 kHz    (333 m%)
    noise: freq = 58.43 kHz   (67.7 %), step = 4.317 kHz    (333 m%)
    noise: freq = 63.1 kHz      (68 %), step = 4.662 kHz    (333 m%)
    noise: freq = 68.13 kHz   (68.3 %), step = 5.033 kHz    (333 m%)
    noise: freq = 73.56 kHz   (68.7 %), step = 5.435 kHz    (333 m%)
    noise: freq = 79.43 kHz     (69 %), step = 5.869 kHz    (333 m%)
    noise: freq = 85.77 kHz   (69.3 %), step = 6.337 kHz    (333 m%)
    noise: freq = 92.61 kHz   (69.7 %), step = 6.842 kHz    (333 m%)
    noise: freq = 100 kHz       (70 %), step = 7.388 kHz    (333 m%)
    noise: freq = 108 kHz     (70.3 %), step = 7.978 kHz    (333 m%)
    noise: freq = 116.6 kHz   (70.7 %), step = 8.614 kHz    (333 m%)
    noise: freq = 125.9 kHz     (71 %), step = 9.301 kHz    (333 m%)
    noise: freq = 135.9 kHz   (71.3 %), step = 10.04 kHz    (333 m%)
    noise: freq = 146.8 kHz   (71.7 %), step = 10.84 kHz    (333 m%)
    noise: freq = 158.5 kHz     (72 %), step = 11.71 kHz    (333 m%)
    noise: freq = 171.1 kHz   (72.3 %), step = 12.64 kHz    (333 m%)
    noise: freq = 184.8 kHz   (72.7 %), step = 13.65 kHz    (333 m%)
    noise: freq = 199.5 kHz     (73 %), step = 14.74 kHz    (333 m%)
    noise: freq = 215.4 kHz   (73.3 %), step = 15.92 kHz    (333 m%)
    noise: freq = 232.6 kHz   (73.7 %), step = 17.19 kHz    (333 m%)
    noise: freq = 251.2 kHz     (74 %), step = 18.56 kHz    (333 m%)
    noise: freq = 271.2 kHz   (74.3 %), step = 20.04 kHz    (333 m%)
    noise: freq = 292.9 kHz   (74.7 %), step = 21.64 kHz    (333 m%)
    noise: freq = 316.2 kHz     (75 %), step = 23.36 kHz    (333 m%)
    noise: freq = 341.5 kHz   (75.3 %), step = 25.23 kHz    (333 m%)
    noise: freq = 368.7 kHz   (75.7 %), step = 27.24 kHz    (333 m%)
    noise: freq = 398.1 kHz     (76 %), step = 29.41 kHz    (333 m%)
    noise: freq = 429.9 kHz   (76.3 %), step = 31.76 kHz    (333 m%)
    noise: freq = 464.2 kHz   (76.7 %), step = 34.29 kHz    (333 m%)
    noise: freq = 501.2 kHz     (77 %), step = 37.03 kHz    (333 m%)
    noise: freq = 541.2 kHz   (77.3 %), step = 39.98 kHz    (333 m%)
    noise: freq = 584.3 kHz   (77.7 %), step = 43.17 kHz    (333 m%)
    noise: freq = 631 kHz       (78 %), step = 46.62 kHz    (333 m%)
    noise: freq = 681.3 kHz   (78.3 %), step = 50.33 kHz    (333 m%)
    noise: freq = 735.6 kHz   (78.7 %), step = 54.35 kHz    (333 m%)
    noise: freq = 794.3 kHz     (79 %), step = 58.69 kHz    (333 m%)
    noise: freq = 857.7 kHz   (79.3 %), step = 63.37 kHz    (333 m%)
    noise: freq = 926.1 kHz   (79.7 %), step = 68.42 kHz    (333 m%)
    noise: freq = 1 MHz         (80 %), step = 73.88 kHz    (333 m%)
    noise: freq = 1.08 MHz    (80.3 %), step = 79.78 kHz    (333 m%)
    noise: freq = 1.166 MHz   (80.7 %), step = 86.14 kHz    (333 m%)
    noise: freq = 1.259 MHz     (81 %), step = 93.01 kHz    (333 m%)
    noise: freq = 1.359 MHz   (81.3 %), step = 100.4 kHz    (333 m%)
    noise: freq = 1.468 MHz   (81.7 %), step = 108.4 kHz    (333 m%)
    noise: freq = 1.585 MHz     (82 %), step = 117.1 kHz    (333 m%)
    noise: freq = 1.711 MHz   (82.3 %), step = 126.4 kHz    (333 m%)
    noise: freq = 1.848 MHz   (82.7 %), step = 136.5 kHz    (333 m%)
    noise: freq = 1.995 MHz     (83 %), step = 147.4 kHz    (333 m%)
    noise: freq = 2.154 MHz   (83.3 %), step = 159.2 kHz    (333 m%)
    noise: freq = 2.326 MHz   (83.7 %), step = 171.9 kHz    (333 m%)
    noise: freq = 2.512 MHz     (84 %), step = 185.6 kHz    (333 m%)
    noise: freq = 2.712 MHz   (84.3 %), step = 200.4 kHz    (333 m%)
    noise: freq = 2.929 MHz   (84.7 %), step = 216.4 kHz    (333 m%)
    noise: freq = 3.162 MHz     (85 %), step = 233.6 kHz    (333 m%)
    noise: freq = 3.415 MHz   (85.3 %), step = 252.3 kHz    (333 m%)
    noise: freq = 3.687 MHz   (85.7 %), step = 272.4 kHz    (333 m%)
    noise: freq = 3.981 MHz     (86 %), step = 294.1 kHz    (333 m%)
    noise: freq = 4.299 MHz   (86.3 %), step = 317.6 kHz    (333 m%)
    noise: freq = 4.642 MHz   (86.7 %), step = 342.9 kHz    (333 m%)
    noise: freq = 5.012 MHz     (87 %), step = 370.3 kHz    (333 m%)
    noise: freq = 5.412 MHz   (87.3 %), step = 399.8 kHz    (333 m%)
    noise: freq = 5.843 MHz   (87.7 %), step = 431.7 kHz    (333 m%)
    noise: freq = 6.31 MHz      (88 %), step = 466.2 kHz    (333 m%)
    noise: freq = 6.813 MHz   (88.3 %), step = 503.3 kHz    (333 m%)
    noise: freq = 7.356 MHz   (88.7 %), step = 543.5 kHz    (333 m%)
    noise: freq = 7.943 MHz     (89 %), step = 586.9 kHz    (333 m%)
    noise: freq = 8.577 MHz   (89.3 %), step = 633.7 kHz    (333 m%)
    noise: freq = 9.261 MHz   (89.7 %), step = 684.2 kHz    (333 m%)
    noise: freq = 10 MHz        (90 %), step = 738.8 kHz    (333 m%)
    noise: freq = 10.8 MHz    (90.3 %), step = 797.8 kHz    (333 m%)
    noise: freq = 11.66 MHz   (90.7 %), step = 861.4 kHz    (333 m%)
    noise: freq = 12.59 MHz     (91 %), step = 930.1 kHz    (333 m%)
    noise: freq = 13.59 MHz   (91.3 %), step = 1.004 MHz    (333 m%)
    noise: freq = 14.68 MHz   (91.7 %), step = 1.084 MHz    (333 m%)
    noise: freq = 15.85 MHz     (92 %), step = 1.171 MHz    (333 m%)
    noise: freq = 17.11 MHz   (92.3 %), step = 1.264 MHz    (333 m%)
    noise: freq = 18.48 MHz   (92.7 %), step = 1.365 MHz    (333 m%)
    noise: freq = 19.95 MHz     (93 %), step = 1.474 MHz    (333 m%)
    noise: freq = 21.54 MHz   (93.3 %), step = 1.592 MHz    (333 m%)
    noise: freq = 23.26 MHz   (93.7 %), step = 1.719 MHz    (333 m%)
    noise: freq = 25.12 MHz     (94 %), step = 1.856 MHz    (333 m%)
    noise: freq = 27.12 MHz   (94.3 %), step = 2.004 MHz    (333 m%)
    noise: freq = 29.29 MHz   (94.7 %), step = 2.164 MHz    (333 m%)
    noise: freq = 31.62 MHz     (95 %), step = 2.336 MHz    (333 m%)
    noise: freq = 34.15 MHz   (95.3 %), step = 2.523 MHz    (333 m%)
    noise: freq = 36.87 MHz   (95.7 %), step = 2.724 MHz    (333 m%)
    noise: freq = 39.81 MHz     (96 %), step = 2.941 MHz    (333 m%)
    noise: freq = 42.99 MHz   (96.3 %), step = 3.176 MHz    (333 m%)
    noise: freq = 46.42 MHz   (96.7 %), step = 3.429 MHz    (333 m%)
    noise: freq = 50.12 MHz     (97 %), step = 3.703 MHz    (333 m%)
    noise: freq = 54.12 MHz   (97.3 %), step = 3.998 MHz    (333 m%)
    noise: freq = 58.43 MHz   (97.7 %), step = 4.317 MHz    (333 m%)
    noise: freq = 63.1 MHz      (98 %), step = 4.662 MHz    (333 m%)
    noise: freq = 68.13 MHz   (98.3 %), step = 5.033 MHz    (333 m%)
    noise: freq = 73.56 MHz   (98.7 %), step = 5.435 MHz    (333 m%)
    noise: freq = 79.43 MHz     (99 %), step = 5.869 MHz    (333 m%)
    noise: freq = 85.77 MHz   (99.3 %), step = 6.337 MHz    (333 m%)
    noise: freq = 92.61 MHz   (99.7 %), step = 6.842 MHz    (333 m%)
    noise: freq = 100 MHz      (100 %), step = 7.388 MHz    (333 m%)
Accumulated DC solution time =            44.1074 us.
Intrinsic noise analysis time =              74.9869 ms.
Total time required for noise analysis `noise': CPU = 64.381 ms, elapsed = 75.1591 ms, util. = 85.7%.
Time accumulated: CPU = 786.985 ms, elapsed = 1.4846 s.
Peak resident memory used = 212 Mbytes.

modelParameter: writing model parameter values to rawfile.

Opening the PSF file ../psf/modelParameter.info ...
element: writing instance parameter values to rawfile.

Opening the PSF file ../psf/element.info ...
outputParameter: writing output parameter values to rawfile.

Opening the PSF file ../psf/outputParameter.info ...
designParamVals: writing netlist parameters to rawfile.

Opening the PSFASCII file ../psf/designParamVals.info ...
primitives: writing primitives to rawfile.

Opening the PSFASCII file ../psf/primitives.info.primitives ...
subckts: writing subcircuits to rawfile.

Opening the PSFASCII file ../psf/subckts.info.subckts ...
Licensing Information:
Lic Summary:
[17:16:03.435234] Cdslmd servers:3000@lic08.ug.kth.se:29000@lic06.ug.kth.se
[17:16:03.435273] Feature usage summary:
[17:16:03.435274] Virtuoso_Multi_mode_Simulation


Aggregate audit (5:16:03 PM, Wed Mar 18, 2026):
Time used: CPU = 814 ms, elapsed = 1.52 s, util. = 53.5%.
Time spent in licensing: elapsed = 224 ms, percentage of total = 14.7%.
Peak memory used = 212 Mbytes.
Simulation started at: 5:16:01 PM, Wed Mar 18, 2026, ended at: 5:16:03 PM, Wed Mar 18, 2026, with elapsed time (wall clock): 1.52 s.
spectre completes with 0 errors, 45 warnings, and 17 notices.


********* LOG ENDS **************
**                             **
