
Spectre (R) Circuit Simulator
Version 24.1.0.288.isr5 64bit -- 3 Apr 2025
Copyright (C) 1989-2025 Cadence Design Systems, Inc. All rights reserved worldwide. Cadence and Spectre are registered trademarks of Cadence Design Systems, Inc. All others are the property of their respective holders.

Includes RSA BSAFE(R) Cryptographic or Security Protocol Software from RSA Security, Inc.

User: davidevi   Host: il2244vt26_davidevi   HostID: 11AC2C00   PID: 1072939
Memory  available: 3.0277 TB  physical: 3.2467 TB
Linux   : Rocky Linux release 8.10 (Green Obsidian)
CPU Type: Intel(R) Xeon(R) CPU E7-8857 v2 @ 3.00GHz
        Socket: Processors [Frequency]
        0:       0 [2700.0],  1 [1200.0],  2 [1200.0],  3 [1400.0],  4 [2999.9]
                 5 [3600.0],  6 [2999.9],  7 [3600.0],  8 [2999.9],  9 [1300.0]
                10 [1600.0], 11 [2999.9]
        1:      12 [3600.0], 13 [3399.9], 14 [3399.9], 15 [3399.9], 16 [3600.0]
                17 [3600.0], 18 [1200.0], 19 [3399.9], 20 [3600.0], 21 [1200.0]
                22 [1200.0], 23 [1200.0]
        2:      24 [2999.9], 25 [2999.9], 26 [3200.0], 27 [1200.0], 28 [2999.9]
                29 [1200.0], 30 [1200.0], 31 [1200.0], 32 [2600.0], 33 [3600.0]
                34 [3600.0], 35 [2600.0]
        3:      36 [1200.0], 37 [2999.9], 38 [2400.0], 39 [2999.9], 40 [3400.0]
                41 [2300.0], 42 [3600.0], 43 [1200.0], 44 [3500.0], 45 [2999.9]
                46 [3600.0], 47 [3600.0]
        
System load averages (1min, 5min, 15min) : 25.8 %, 25.1 %, 24.3 %
HPC is enabled


Simulating `input.scs' on il2244vt26_davidevi at 9:47:27 AM, Thur Apr 16, 2026 (process id: 1072939).
Current working directory: /home/davidevi/Desktop/myproject/Sim/VGA/VGA_1_wakeup_tb/adexl/results/data/MonteCarlo.3/51/wakeup_MC/groupRunDataDir/netlist
Command line:
    /opt/tools/cadence/installs/SPECTRE241/tools/bin/spectre -64  \
        input.scs +escchars +log ../psf/spectre.out -format psfbin  \
        +rtsf -raw ../psf +aps +mt +lqtimeout 900 -maxw 5 -maxn 5  \
        +param /opt/pdk/ams/410/spectre/ams_range.lmts -env ade  \
        -ahdllibdir  \
        /home/davidevi/Desktop/myproject/Sim/VGA/VGA_1_wakeup_tb/adexl/results/data/MonteCarlo.3/sharedData/Job492/ahdl/input.ahdlSimDB  \
        +logstatus  \
        +adespetkn=0001089D13A302B663E41FB550AF0DF415A679A322D5069144BF588C12F604E07EF416DC01A319B562BB63D373AA35E345A365E725C73DB652FE59F411DA4F9271FC79D15D9175FF34986BDD0AF002BA50FD7FD707E002A700AC1C831CFE42E30EAE79D121F874D3349879D118F874D334981031A8D5C4FE5D78000036A0

Simulation Id: A0tZzPffIe2ceAEd
Licensing Information:
[09:47:27.121834] Configured Lic search path (24.01-s002): 3000@lic08.ug.kth.se:29000@lic06.ug.kth.se

Licensing Information:
[09:47:27.314144] Periodic Lic check successful

Loading /opt/tools/cadence/installs/SPECTRE241/tools.lnx86/cmi/lib/64bit/5.0/libinfineon_sh.so ...
Loading /opt/tools/cadence/installs/SPECTRE241/tools.lnx86/cmi/lib/64bit/5.0/libphilips_I_sh.so ...
Loading /opt/tools/cadence/installs/SPECTRE241/tools.lnx86/cmi/lib/64bit/5.0/libphilips_sh.so ...
Loading /opt/tools/cadence/installs/SPECTRE241/tools.lnx86/cmi/lib/64bit/5.0/libsparam_sh.so ...
Loading /opt/tools/cadence/installs/SPECTRE241/tools.lnx86/cmi/lib/64bit/5.0/libstmodels_sh.so ...

Warning from spectre.
    WARNING (SPECTRE-691): This CPU processor does not support x86 advanced vector extensions instructions. This may affect math operations and slow down the simulation.

Reading file:  /home/davidevi/Desktop/myproject/Sim/VGA/VGA_1_wakeup_tb/adexl/results/data/MonteCarlo.3/51/wakeup_MC/groupRunDataDir/netlist/input.scs
Reading file:  /opt/pdk/ams/410/spectre/ams_range.lmts

Warning from spectre during read of parameter soft limits file `/opt/pdk/ams/410/spectre/ams_range.lmts', during circuit read-in.
    WARNING (SPECTRE-8360): line 1511: `ac' is an undefined primitive device.
    WARNING (SPECTRE-8360): line 1512: `ac' is an undefined primitive device.
    WARNING (SPECTRE-8360): line 1513: `ac' is an undefined primitive device.
    WARNING (SPECTRE-8360): line 1514: `ac' is an undefined primitive device.
    WARNING (SPECTRE-8360): line 1515: `ac' is an undefined primitive device.
        Further occurrences of this warning will be suppressed.

Reading file:  /opt/tools/cadence/installs/SPECTRE241/tools.lnx86/spectre/etc/configs/spectre.cfg
Reading file:  /opt/pdk/ams/410/spectre/c35/soac/soac.scs
Reading file:  /opt/pdk/ams/410/spectre/c35/soac/processOption.scs
Reading file:  /opt/pdk/ams/410/spectre/c35/soac/process.scs
Reading file:  /opt/pdk/ams/410/spectre/c35/soac/soac.va

Warning from spectre during AHDL read-in.
    WARNING (VACOMP-2435): The environment variable CDS_AHDLCMI_ENABLE is no longer supported. Therefore, the simulator will use the default compiled C code flow.

Reading link:  /opt/tools/cadence/installs/SPECTRE241/tools.lnx86/spectre/etc/ahdl/constants.h
Reading file:  /opt/tools/cadence/installs/SPECTRE241/tools.lnx86/spectre/etc/ahdl/constants.vams
Reading link:  /opt/tools/cadence/installs/SPECTRE241/tools.lnx86/spectre/etc/ahdl/discipline.h
Reading file:  /opt/tools/cadence/installs/SPECTRE241/tools.lnx86/spectre/etc/ahdl/disciplines.vams
Reading file:  /opt/pdk/ams/410/spectre/c35/processOption/C35B4C3.scs
Reading file:  /opt/pdk/ams/410/spectre/c35/soac/cmos53.scs
Reading file:  /opt/pdk/ams/410/spectre/c35/soac/res.scs
Reading file:  /opt/pdk/ams/410/spectre/c35/soac/cap.scs
Reading file:  /opt/pdk/ams/410/spectre/c35/soac/bip.scs
Reading file:  /opt/pdk/ams/410/spectre/c35/soac/ind.scs
Reading file:  /opt/pdk/ams/410/spectre/c35/soac/esddiode.scs
Time for NDB Parsing: CPU = 193.091 ms, elapsed = 335.795 ms.
Time accumulated: CPU = 400.979 ms, elapsed = 335.798 ms.
Peak resident memory used = 175 Mbytes.

Existing shared object for module modn_ahdl is up to date.
Installed compiled interface for modn_ahdl.
Existing shared object for module modp_ahdl is up to date.
Installed compiled interface for modp_ahdl.
Existing shared object for module cpoly_ahdl is up to date.
Installed compiled interface for cpoly_ahdl.
Existing shared object for module rpolyh_ahdl is up to date.
Installed compiled interface for rpolyh_ahdl.
Existing shared object for module bsource_fcab9d is up to date.
Installed compiled interface for bsource_fcab9d.
Time for Elaboration: CPU = 63.34 ms, elapsed = 66.556 ms.
Time accumulated: CPU = 464.47 ms, elapsed = 402.503 ms.
Peak resident memory used = 188 Mbytes.


Notice from spectre during hierarchy flattening.
    The value 'psf' specified for the 'checklimitdest' option will no longer be supported in future releases. Use 'spectre -h' to see other recommended values for the 'checklimitdest' option.


*****************************************************************************************
* 
* INFO: AMS_processOption = C35B4C3
* 
* INFO: Valid Modules  PIP VG5 HIRES
* 
*****************************************************************************************


Notice from spectre during hierarchy flattening.
    V8: `period' has the unusually large value of 100 s.


Time for EDB Visiting: CPU = 8.647 ms, elapsed = 8.64792 ms.
Time accumulated: CPU = 473.305 ms, elapsed = 411.338 ms.
Peak resident memory used = 192 Mbytes.

Loading /opt/tools/cadence/installs/SPECTRE241/tools.lnx86/mdl/lib/64bit/libSpectreEH_sh.so ...

Warning from spectre during initial setup.
    WARNING (SPECTRE-16460): SOAC_cvarm_vspsub:Specified subcircuit master `cvarm' was not found.
    WARNING (SPECTRE-16462): SOAC_cvarm_vspsub:Error in specification of subcircuit master. Assert is ignored.
    WARNING (SPECTRE-16460): SOAC_cvarm_vbs:Specified subcircuit master `cvarm' was not found.
    WARNING (SPECTRE-16462): SOAC_cvarm_vbs:Error in specification of subcircuit master. Assert is ignored.
    WARNING (SPECTRE-16460): SOAC_cvarm_vgb:Specified subcircuit master `cvarm' was not found.
    WARNING (SPECTRE-16462): SOAC_cvarm_vgb:Error in specification of subcircuit master. Assert is ignored.
    WARNING (SPECTRE-16460): SOAC_cvart_vspsub:Specified subcircuit master `cvart' was not found.
    WARNING (SPECTRE-16462): SOAC_cvart_vspsub:Error in specification of subcircuit master. Assert is ignored.
    WARNING (SPECTRE-16460): SOAC_cvart_vbs:Specified subcircuit master `cvart' was not found.
        Further occurrences of this warning will be suppressed.
    WARNING (SPECTRE-16462): SOAC_cvart_vbs:Error in specification of subcircuit master. Assert is ignored.
        Further occurrences of this warning will be suppressed.
Notice from spectre during topology check.
    Only one connection to the following 52 nodes:
        I0.MN6.psub!
        I0.MN5.psub!
        I0.MN4.psub!
        I0.MN3.psub!
        I0.MN2.psub!
        Further occurrences of this notice will be suppressed.
Notice from spectre during initial setup.
    Multithreading is disabled due to the size of the design being too small.


Netlist title:
        // Point Netlist Generated on: Apr 16 09:47:26 2026


Global user options:
         psfversion = 1.4.0
            vabstol = 1e-06
            iabstol = 1e-12
               temp = 27
           homotopy = 5
              limit = delta
         compatible = spice2
               gmin = 1e-12
             rforce = 1
           maxnotes = 5
           maxwarns = 5
             digits = 5
               cols = 80
             pivrel = 0.001
           sensfile = ../psf/sens.output
     checklimitdest = psf
     enable_pre_ver = yes
      ignorezerovar = yes
               save = allpub
             reltol = 0.0001
               tnom = 27
             scalem = 1
              scale = 1

Scoped user options:

Circuit inventory:
              nodes 84
            bsim3v3 33    
     bsource_fcab9d 2     
          capacitor 38    
         cpoly_ahdl 17    
            isource 1     
          modn_ahdl 19    
          modp_ahdl 14    
           resistor 1     
        rpolyh_ahdl 2     
            vsource 8     

Analysis and control statement inventory:
               info 7     
         montecarlo 1     
               tran 1     

Output statements:
             .probe 0     
           .measure 0     
               save 0     

Design checks inventory:
          paramtest 53    
             assert 175   


Notice from spectre during initial setup.
    APS enabled.
    1 notice suppressed.
    72 warnings suppressed.

Time for parsing: CPU = 18.223 ms, elapsed = 624.944 ms.
Time accumulated: CPU = 491.637 ms, elapsed = 1.03639 s.
Peak resident memory used = 198 Mbytes.

~~~~~~~~~~~~~~~~~~~~~~
Pre-Simulation Summary
~~~~~~~~~~~~~~~~~~~~~~
   -   (APS) Multi-threading. The recommended number of threads is 1, consider adding +mt=1 on command line.
~~~~~~~~~~~~~~~~~~~~~~

**************************************************
Monte Carlo Analysis `mc1': iteration = (51 -> 75)
**************************************************
Important parameter values:
    seed = 12345
    sampling = lds
    variations = all
    firstrun = 51
    numruns = 25
    nullmfactorcorrelation = no
    donominal = no
    method = standard
Opening iteration number and data-directory mapping file:  /home/davidevi/Desktop/myproject/Sim/VGA/VGA_1_wakeup_tb/adexl/results/data/MonteCarlo.3/51/wakeup_MC/groupRunDataDir/netlist/../psf/mc1.mapping

Statistical parameters:
    Defined process parameters: 629
    Defined mismatch parameters (subckt based): 86
    Non-referenced mismatch parameters: 80
    Number of random variables: 714
    Gaussian truncation for process parameters: 4.00 sigma
    Gaussian truncation for mismatch parameters: 4.00 sigma


**** Skipping runs 1 to 50 for `mc1'


Opening the PSF file ../psf/mc1_tran.montecarlo ...

Opening the PSF file ../psf/mc1_finalTimeOP.montecarlo ...

Opening the PSF file ../psf/mc1_modelParameter.montecarlo ...

Opening the PSF file ../psf/mc1_element.montecarlo ...

Opening the PSF file ../psf/mc1_outputParameter.montecarlo ...

Opening the PSF file ../psf/mc1_designParamVals.montecarlo ...

Opening the PSF file ../psf/mc1_primitives.montecarlo ...

Opening the PSF file ../psf/mc1_subckts.montecarlo ...

**** Performing monte carlo loop for `mc1'

51   0.00% 

*****************************************************************************************
* 
* INFO: AMS_processOption = C35B4C3
* 
* INFO: Valid Modules  PIP VG5 HIRES
* 
*****************************************************************************************


Notice from spectre at iteration = 51 during Monte Carlo analysis `mc1'.
    V8: `period' has the unusually large value of 100 s.
Notice from spectre at iteration = 51 during transient analysis `tran', during Monte Carlo analysis `mc1'.
    No checklimit analysis defined for asserts. A default checklimit analysis 'SpectreChecklimitAnal' has been created with all asserts enabled.


***********************************************
Transient Analysis `tran': time = (0 s -> 50 s)
***********************************************

Opening the PSF file ../psf/mc1_separate/051/tran.tran.tran ...

Warning from spectre at iteration = 51 during check, during IC analysis, during transient analysis `tran', during Monte Carlo analysis `mc1'.
    WARNING (CMI-2943): Parameter checks have been ignored because the valid value for parameter 'trise' could not be found in 'C1'.
    WARNING (CMI-2943): Parameter checks have been ignored because the valid value for parameter 'trise' could not be found in 'I0.R2.CM'.
    WARNING (CMI-2943): Parameter checks have been ignored because the valid value for parameter 'trise' could not be found in 'I0.R2.CS1'.
    WARNING (CMI-2943): Parameter checks have been ignored because the valid value for parameter 'trise' could not be found in 'I0.R2.CS0'.
    WARNING (CMI-2943): Parameter checks have been ignored because the valid value for parameter 'trise' could not be found in 'I0.C8<3>.C1'.
        Further occurrences of this warning will be suppressed.

Convergence achieved in 12 iterations.
DC simulation time: CPU = 2.986 ms, elapsed = 2.98715 ms.
Important parameter values:
    start = 0 s
    outputstart = 0 s
    stop = 50 s
    step = 50 ms
    maxstep = 500 ms
    ic = all
    useprevic = no
    skipdc = no
    reltol = 10e-06
    abstol(V) = 1 uV
    abstol(I) = 1 pA
    temp = 27 C
    tnom = 27 C
    tempeffects = all
    errpreset = conservative
    method = gear2only
    lteratio = 10
    relref = alllocal
    cmin = 0 F
    gmin = 1 pS
    rabsshort = 1 mOhm


Notice from spectre at iteration = 51 during transient analysis `tran', during Monte Carlo analysis `mc1'.
    Multithreading is disabled due to the size of the design being too small.


Output and IC/nodeset summary:
                 save   8       (current)
                 save   83      (voltage)

    tran: time = 1.403 s     (2.81 %), step = 160 ms       (320 m%)
    tran: time = 4 s            (8 %), step = 401 ms       (802 m%)
    tran: time = 6.354 s     (12.7 %), step = 500 ms          (1 %)
    tran: time = 8.854 s     (17.7 %), step = 500 ms          (1 %)
    tran: time = 11.35 s     (22.7 %), step = 500 ms          (1 %)
    tran: time = 13.85 s     (27.7 %), step = 500 ms          (1 %)
    tran: time = 16.35 s     (32.7 %), step = 500 ms          (1 %)
    tran: time = 18.85 s     (37.7 %), step = 500 ms          (1 %)
    tran: time = 21.35 s     (42.7 %), step = 500 ms          (1 %)
    tran: time = 23.85 s     (47.7 %), step = 500 ms          (1 %)
    tran: time = 26.35 s     (52.7 %), step = 500 ms          (1 %)
    tran: time = 28.85 s     (57.7 %), step = 500 ms          (1 %)
    tran: time = 31.35 s     (62.7 %), step = 500 ms          (1 %)
    tran: time = 33.85 s     (67.7 %), step = 500 ms          (1 %)
    tran: time = 36.35 s     (72.7 %), step = 500 ms          (1 %)
    tran: time = 38.85 s     (77.7 %), step = 500 ms          (1 %)
    tran: time = 41.35 s     (82.7 %), step = 500 ms          (1 %)
    tran: time = 43.85 s     (87.7 %), step = 500 ms          (1 %)
    tran: time = 46.35 s     (92.7 %), step = 500 ms          (1 %)
    tran: time = 48.85 s     (97.7 %), step = 500 ms          (1 %)
Number of accepted tran steps =             721

Maximum value achieved for any signal of each quantity: 
V: V(vout) = 3.3 V
I: I(V8:p) = 6.469 uA

~~~~~~~~~~~~~~~~~~~~~~~~~~~~~~~~~
Post-Transient Simulation Summary
~~~~~~~~~~~~~~~~~~~~~~~~~~~~~~~~~
   -   To further speed up simulation, consider
          add ++aps on command line
   -   Non-default settings that could significantly slow down simulation
          errpreset = conservative, default moderate
          reltol = 10e-06, default 100e-06 (conservative)
~~~~~~~~~~~~~~~~~~~~~~~~~~~~~~~~~


During simulation, the CPU load for active processors is :
         0 (2.8 %)       1 (3.5 %)       2 (35.1 %)      3 (11.7 %)
         4 (22.2 %)      5 (6.9 %)       6 (32.9 %)      7 (7.6 %)
         8 (100.0 %)     9 (4.1 %)      10 (4.9 %)      11 (20.8 %)
        12 (25.8 %)     13 (12.5 %)     14 (26.2 %)     15 (25.0 %)
        16 (74.5 %)     17 (5.6 %)      18 (11.2 %)     19 (11.0 %)
        20 (27.8 %)     21 (17.7 %)     22 (12.6 %)     23 (5.6 %)
        24 (63.9 %)     25 (100.0 %)    26 (6.9 %)      27 (4.1 %)
        28 (54.9 %)     29 (7.0 %)      30 (19.4 %)     31 (26.6 %)
        32 (7.5 %)      33 (2.8 %)      34 (4.8 %)      35 (3.4 %)
        36 (28.5 %)     37 (100.0 %)    38 (50.0 %)     39 (24.1 %)
        40 (2.8 %)      41 (4.2 %)      42 (8.2 %)      43 (4.2 %)
        44 (13.8 %)     45 (8.4 %)      46 (33.1 %)     47 (9.8 %)
        Total: 1096.5%
Initial condition solution time: CPU = 3.027 ms, elapsed = 3.02911 ms.
Intrinsic tran analysis time:    CPU = 418.933 ms, elapsed = 420.25 ms.
Total time required for tran analysis `tran': CPU = 511.037 ms, elapsed = 516.087 ms, util. = 99%.
Time accumulated: CPU = 1.08498 s, elapsed = 1.64206 s.
Peak resident memory used = 212 Mbytes.


Notice from spectre during transient analysis `tran', during Monte Carlo analysis `mc1'.
    34 warnings suppressed.

finalTimeOP: writing operating point information to rawfile.

Opening the PSF file ../psf/mc1_separate/051/finalTimeOP.info ...
modelParameter: writing model parameter values to rawfile.

Opening the PSF file ../psf/mc1_separate/051/modelParameter.info ...
element: writing instance parameter values to rawfile.

Opening the PSF file ../psf/mc1_separate/051/element.info ...
outputParameter: writing output parameter values to rawfile.

Opening the PSF file ../psf/mc1_separate/051/outputParameter.info ...
designParamVals: writing netlist parameters to rawfile.

Opening the PSFASCII file ../psf/mc1_separate/051/designParamVals.info ...
primitives: writing primitives to rawfile.

Opening the PSFASCII file ../psf/mc1_separate/051/primitives.info.primitives ...
subckts: writing subcircuits to rawfile.

Opening the PSFASCII file ../psf/mc1_separate/051/subckts.info.subckts ...
52   4.17% 

*****************************************************************************************
* 
* INFO: AMS_processOption = C35B4C3
* 
* INFO: Valid Modules  PIP VG5 HIRES
* 
*****************************************************************************************


Notice from spectre during Monte Carlo analysis `mc1'.
    V8: `period' has the unusually large value of 100 s.


***********************************************
Transient Analysis `tran': time = (0 s -> 50 s)
***********************************************

Opening the PSF file ../psf/mc1_separate/052/tran.tran.tran ...

Warning from spectre during check, during IC analysis, during transient analysis `tran', during Monte Carlo analysis `mc1'.
    WARNING (CMI-2943): Parameter checks have been ignored because the valid value for parameter 'trise' could not be found in 'C1'.
    WARNING (CMI-2943): Parameter checks have been ignored because the valid value for parameter 'trise' could not be found in 'I0.R2.CM'.
    WARNING (CMI-2943): Parameter checks have been ignored because the valid value for parameter 'trise' could not be found in 'I0.R2.CS1'.
    WARNING (CMI-2943): Parameter checks have been ignored because the valid value for parameter 'trise' could not be found in 'I0.R2.CS0'.
    WARNING (CMI-2943): Parameter checks have been ignored because the valid value for parameter 'trise' could not be found in 'I0.C8<3>.C1'.
        Further occurrences of this warning will be suppressed.

Convergence achieved in 12 iterations.
DC simulation time: CPU = 2.546 ms, elapsed = 2.54679 ms.
Important parameter values:
    start = 0 s
    outputstart = 0 s
    stop = 50 s
    step = 50 ms
    maxstep = 500 ms
    ic = all
    useprevic = no
    skipdc = no
    reltol = 10e-06
    abstol(V) = 1 uV
    abstol(I) = 1 pA
    temp = 27 C
    tnom = 27 C
    tempeffects = all
    errpreset = conservative
    method = gear2only
    lteratio = 10
    relref = alllocal
    cmin = 0 F
    gmin = 1 pS
    rabsshort = 1 mOhm


Notice from spectre during transient analysis `tran', during Monte Carlo analysis `mc1'.
    Multithreading is disabled due to the size of the design being too small.


Output and IC/nodeset summary:
                 save   8       (current)
                 save   83      (voltage)

    tran: time = 1.264 s     (2.53 %), step = 139.8 ms     (280 m%)
    tran: time = 3.9 s        (7.8 %), step = 390.2 ms     (780 m%)
    tran: time = 6.27 s      (12.5 %), step = 500 ms          (1 %)
    tran: time = 8.77 s      (17.5 %), step = 500 ms          (1 %)
    tran: time = 11.27 s     (22.5 %), step = 500 ms          (1 %)
    tran: time = 13.77 s     (27.5 %), step = 500 ms          (1 %)
    tran: time = 16.27 s     (32.5 %), step = 500 ms          (1 %)
    tran: time = 18.77 s     (37.5 %), step = 500 ms          (1 %)
    tran: time = 21.27 s     (42.5 %), step = 500 ms          (1 %)
    tran: time = 23.77 s     (47.5 %), step = 500 ms          (1 %)
    tran: time = 26.27 s     (52.5 %), step = 500 ms          (1 %)
    tran: time = 28.77 s     (57.5 %), step = 500 ms          (1 %)
    tran: time = 31.27 s     (62.5 %), step = 500 ms          (1 %)
    tran: time = 33.77 s     (67.5 %), step = 500 ms          (1 %)
    tran: time = 36.27 s     (72.5 %), step = 500 ms          (1 %)
    tran: time = 38.77 s     (77.5 %), step = 500 ms          (1 %)
    tran: time = 41.27 s     (82.5 %), step = 500 ms          (1 %)
    tran: time = 43.77 s     (87.5 %), step = 500 ms          (1 %)
    tran: time = 46.27 s     (92.5 %), step = 500 ms          (1 %)
    tran: time = 48.77 s     (97.5 %), step = 500 ms          (1 %)
Number of accepted tran steps =             696

Maximum value achieved for any signal of each quantity: 
V: V(S<0>) = 3.3 V
I: I(V8:p) = 7.316 uA
Maximum value of each quantity, excluding Verilog-A modules or dangling current sources:
V: V(vout_filt) = 3.109 V
I: I(V8:p) = 7.316 uA

~~~~~~~~~~~~~~~~~~~~~~~~~~~~~~~~~
Post-Transient Simulation Summary
~~~~~~~~~~~~~~~~~~~~~~~~~~~~~~~~~
   -   To further speed up simulation, consider
          add ++aps on command line
   -   Non-default settings that could significantly slow down simulation
          errpreset = conservative, default moderate
          reltol = 10e-06, default 100e-06 (conservative)
~~~~~~~~~~~~~~~~~~~~~~~~~~~~~~~~~


During simulation, the CPU load for active processors is :
         0 (4.1 %)       1 (6.4 %)       2 (43.3 %)      3 (9.4 %)
         4 (17.2 %)      5 (6.9 %)       6 (52.5 %)      7 (13.7 %)
         8 (100.0 %)     9 (5.4 %)      10 (5.0 %)      11 (17.6 %)
        12 (32.5 %)     13 (10.4 %)     14 (20.1 %)     15 (18.4 %)
        16 (67.6 %)     17 (18.7 %)     18 (23.2 %)     19 (9.3 %)
        20 (21.2 %)     21 (40.8 %)     22 (10.8 %)     23 (5.5 %)
        24 (47.1 %)     25 (100.0 %)    26 (14.4 %)     27 (3.9 %)
        28 (60.1 %)     29 (10.3 %)     30 (16.3 %)     31 (20.8 %)
        32 (10.6 %)     33 (4.4 %)      34 (4.9 %)      35 (4.4 %)
        36 (26.2 %)     37 (100.0 %)    38 (64.0 %)     39 (21.0 %)
        40 (5.5 %)      41 (5.0 %)      42 (5.9 %)      43 (4.4 %)
        44 (16.6 %)     45 (6.5 %)      46 (30.5 %)     47 (8.0 %)
        Total: 1150.8%
Initial condition solution time: CPU = 2.642 ms, elapsed = 2.64478 ms.
Intrinsic tran analysis time:    CPU = 407.971 ms, elapsed = 409.429 ms.
Total time required for tran analysis `tran': CPU = 413.367 ms, elapsed = 415.66 ms, util. = 99.4%.
Time accumulated: CPU = 1.55095 s, elapsed = 2.12262 s.
Peak resident memory used = 213 Mbytes.


Notice from spectre during transient analysis `tran', during Monte Carlo analysis `mc1'.
    34 warnings suppressed.

finalTimeOP: writing operating point information to rawfile.

Opening the PSF file ../psf/mc1_separate/052/finalTimeOP.info ...
modelParameter: writing model parameter values to rawfile.

Opening the PSF file ../psf/mc1_separate/052/modelParameter.info ...
element: writing instance parameter values to rawfile.

Opening the PSF file ../psf/mc1_separate/052/element.info ...
outputParameter: writing output parameter values to rawfile.

Opening the PSF file ../psf/mc1_separate/052/outputParameter.info ...
designParamVals: writing netlist parameters to rawfile.

Opening the PSFASCII file ../psf/mc1_separate/052/designParamVals.info ...
primitives: writing primitives to rawfile.

Opening the PSFASCII file ../psf/mc1_separate/052/primitives.info.primitives ...
subckts: writing subcircuits to rawfile.

Opening the PSFASCII file ../psf/mc1_separate/052/subckts.info.subckts ...
    mc1: iteration = 52          (4.17 %), step = 1            (4.17 %)
53   8.33% 

*****************************************************************************************
* 
* INFO: AMS_processOption = C35B4C3
* 
* INFO: Valid Modules  PIP VG5 HIRES
* 
*****************************************************************************************


Notice from spectre during Monte Carlo analysis `mc1'.
    V8: `period' has the unusually large value of 100 s.


***********************************************
Transient Analysis `tran': time = (0 s -> 50 s)
***********************************************

Opening the PSF file ../psf/mc1_separate/053/tran.tran.tran ...

Warning from spectre during check, during IC analysis, during transient analysis `tran', during Monte Carlo analysis `mc1'.
    WARNING (CMI-2943): Parameter checks have been ignored because the valid value for parameter 'trise' could not be found in 'C1'.
    WARNING (CMI-2943): Parameter checks have been ignored because the valid value for parameter 'trise' could not be found in 'I0.R2.CM'.
    WARNING (CMI-2943): Parameter checks have been ignored because the valid value for parameter 'trise' could not be found in 'I0.R2.CS1'.
    WARNING (CMI-2943): Parameter checks have been ignored because the valid value for parameter 'trise' could not be found in 'I0.R2.CS0'.
    WARNING (CMI-2943): Parameter checks have been ignored because the valid value for parameter 'trise' could not be found in 'I0.C8<3>.C1'.
        Further occurrences of this warning will be suppressed.

Convergence achieved in 12 iterations.
DC simulation time: CPU = 2.436 ms, elapsed = 2.43688 ms.
Important parameter values:
    start = 0 s
    outputstart = 0 s
    stop = 50 s
    step = 50 ms
    maxstep = 500 ms
    ic = all
    useprevic = no
    skipdc = no
    reltol = 10e-06
    abstol(V) = 1 uV
    abstol(I) = 1 pA
    temp = 27 C
    tnom = 27 C
    tempeffects = all
    errpreset = conservative
    method = gear2only
    lteratio = 10
    relref = alllocal
    cmin = 0 F
    gmin = 1 pS
    rabsshort = 1 mOhm


Notice from spectre during transient analysis `tran', during Monte Carlo analysis `mc1'.
    Multithreading is disabled due to the size of the design being too small.


Output and IC/nodeset summary:
                 save   8       (current)
                 save   83      (voltage)

    tran: time = 1.398 s      (2.8 %), step = 156.2 ms     (312 m%)
    tran: time = 3.922 s     (7.84 %), step = 400.4 ms     (801 m%)
    tran: time = 6.319 s     (12.6 %), step = 500 ms          (1 %)
    tran: time = 8.819 s     (17.6 %), step = 500 ms          (1 %)
    tran: time = 11.32 s     (22.6 %), step = 500 ms          (1 %)
    tran: time = 13.82 s     (27.6 %), step = 500 ms          (1 %)
    tran: time = 16.32 s     (32.6 %), step = 500 ms          (1 %)
    tran: time = 18.82 s     (37.6 %), step = 500 ms          (1 %)
    tran: time = 21.32 s     (42.6 %), step = 500 ms          (1 %)
    tran: time = 23.82 s     (47.6 %), step = 500 ms          (1 %)
    tran: time = 26.32 s     (52.6 %), step = 500 ms          (1 %)
    tran: time = 28.82 s     (57.6 %), step = 500 ms          (1 %)
    tran: time = 31.32 s     (62.6 %), step = 500 ms          (1 %)
    tran: time = 33.82 s     (67.6 %), step = 500 ms          (1 %)
    tran: time = 36.32 s     (72.6 %), step = 500 ms          (1 %)
    tran: time = 38.82 s     (77.6 %), step = 500 ms          (1 %)
    tran: time = 41.32 s     (82.6 %), step = 500 ms          (1 %)
    tran: time = 43.82 s     (87.6 %), step = 500 ms          (1 %)
    tran: time = 46.32 s     (92.6 %), step = 500 ms          (1 %)
    tran: time = 48.82 s     (97.6 %), step = 500 ms          (1 %)
Number of accepted tran steps =             707

Maximum value achieved for any signal of each quantity: 
V: V(S<0>) = 3.3 V
I: I(V8:p) = 6.584 uA

~~~~~~~~~~~~~~~~~~~~~~~~~~~~~~~~~
Post-Transient Simulation Summary
~~~~~~~~~~~~~~~~~~~~~~~~~~~~~~~~~
   -   To further speed up simulation, consider
          add ++aps on command line
   -   Non-default settings that could significantly slow down simulation
          errpreset = conservative, default moderate
          reltol = 10e-06, default 100e-06 (conservative)
~~~~~~~~~~~~~~~~~~~~~~~~~~~~~~~~~


During simulation, the CPU load for active processors is :
         0 (7.0 %)       1 (6.0 %)       2 (39.0 %)      3 (9.6 %)
         4 (14.9 %)      5 (6.5 %)       6 (61.6 %)      7 (27.8 %)
         8 (100.0 %)     9 (10.0 %)     10 (6.4 %)      11 (15.2 %)
        12 (38.5 %)     13 (9.3 %)      14 (18.7 %)     15 (27.4 %)
        16 (61.8 %)     17 (22.7 %)     18 (31.7 %)     19 (8.4 %)
        20 (20.8 %)     21 (39.5 %)     22 (9.6 %)      23 (5.3 %)
        24 (39.5 %)     25 (100.0 %)    26 (30.4 %)     27 (6.0 %)
        28 (50.4 %)     29 (8.8 %)      30 (16.7 %)     31 (17.3 %)
        32 (12.5 %)     33 (4.0 %)      34 (4.0 %)      35 (5.5 %)
        36 (25.0 %)     37 (100.0 %)    38 (70.2 %)     39 (17.4 %)
        40 (7.7 %)      41 (10.9 %)     42 (6.0 %)      43 (5.2 %)
        44 (17.4 %)     45 (6.1 %)      46 (28.8 %)     47 (7.3 %)
        Total: 1195.0%
Initial condition solution time: CPU = 2.482 ms, elapsed = 2.48384 ms.
Intrinsic tran analysis time:    CPU = 413.835 ms, elapsed = 415.407 ms.
Total time required for tran analysis `tran': CPU = 418.775 ms, elapsed = 421.002 ms, util. = 99.5%.
Time accumulated: CPU = 2.01344 s, elapsed = 2.59866 s.
Peak resident memory used = 213 Mbytes.


Notice from spectre during transient analysis `tran', during Monte Carlo analysis `mc1'.
    34 warnings suppressed.

finalTimeOP: writing operating point information to rawfile.

Opening the PSF file ../psf/mc1_separate/053/finalTimeOP.info ...
modelParameter: writing model parameter values to rawfile.

Opening the PSF file ../psf/mc1_separate/053/modelParameter.info ...
element: writing instance parameter values to rawfile.

Opening the PSF file ../psf/mc1_separate/053/element.info ...
outputParameter: writing output parameter values to rawfile.

Opening the PSF file ../psf/mc1_separate/053/outputParameter.info ...
designParamVals: writing netlist parameters to rawfile.

Opening the PSFASCII file ../psf/mc1_separate/053/designParamVals.info ...
primitives: writing primitives to rawfile.

Opening the PSFASCII file ../psf/mc1_separate/053/primitives.info.primitives ...
subckts: writing subcircuits to rawfile.

Opening the PSFASCII file ../psf/mc1_separate/053/subckts.info.subckts ...
    mc1: iteration = 53          (8.33 %), step = 1            (4.17 %)
54  12.50% 

*****************************************************************************************
* 
* INFO: AMS_processOption = C35B4C3
* 
* INFO: Valid Modules  PIP VG5 HIRES
* 
*****************************************************************************************


Notice from spectre during Monte Carlo analysis `mc1'.
    V8: `period' has the unusually large value of 100 s.


***********************************************
Transient Analysis `tran': time = (0 s -> 50 s)
***********************************************

Opening the PSF file ../psf/mc1_separate/054/tran.tran.tran ...

Warning from spectre during check, during IC analysis, during transient analysis `tran', during Monte Carlo analysis `mc1'.
    WARNING (CMI-2943): Parameter checks have been ignored because the valid value for parameter 'trise' could not be found in 'C1'.
    WARNING (CMI-2943): Parameter checks have been ignored because the valid value for parameter 'trise' could not be found in 'I0.R2.CM'.
    WARNING (CMI-2943): Parameter checks have been ignored because the valid value for parameter 'trise' could not be found in 'I0.R2.CS1'.
    WARNING (CMI-2943): Parameter checks have been ignored because the valid value for parameter 'trise' could not be found in 'I0.R2.CS0'.
    WARNING (CMI-2943): Parameter checks have been ignored because the valid value for parameter 'trise' could not be found in 'I0.C8<3>.C1'.
        Further occurrences of this warning will be suppressed.

Convergence achieved in 12 iterations.
DC simulation time: CPU = 2.462 ms, elapsed = 2.51102 ms.
Important parameter values:
    start = 0 s
    outputstart = 0 s
    stop = 50 s
    step = 50 ms
    maxstep = 500 ms
    ic = all
    useprevic = no
    skipdc = no
    reltol = 10e-06
    abstol(V) = 1 uV
    abstol(I) = 1 pA
    temp = 27 C
    tnom = 27 C
    tempeffects = all
    errpreset = conservative
    method = gear2only
    lteratio = 10
    relref = alllocal
    cmin = 0 F
    gmin = 1 pS
    rabsshort = 1 mOhm


Notice from spectre during transient analysis `tran', during Monte Carlo analysis `mc1'.
    Multithreading is disabled due to the size of the design being too small.


Output and IC/nodeset summary:
                 save   8       (current)
                 save   83      (voltage)

    tran: time = 1.303 s     (2.61 %), step = 148.2 ms     (296 m%)
    tran: time = 4.046 s     (8.09 %), step = 380.4 ms     (761 m%)
    tran: time = 6.279 s     (12.6 %), step = 494.3 ms     (989 m%)
    tran: time = 8.779 s     (17.6 %), step = 500 ms          (1 %)
    tran: time = 11.28 s     (22.6 %), step = 500 ms          (1 %)
    tran: time = 13.78 s     (27.6 %), step = 500 ms          (1 %)
    tran: time = 16.28 s     (32.6 %), step = 500 ms          (1 %)
    tran: time = 18.78 s     (37.6 %), step = 500 ms          (1 %)
    tran: time = 21.28 s     (42.6 %), step = 500 ms          (1 %)
    tran: time = 23.78 s     (47.6 %), step = 500 ms          (1 %)
    tran: time = 26.28 s     (52.6 %), step = 500 ms          (1 %)
    tran: time = 28.78 s     (57.6 %), step = 500 ms          (1 %)
    tran: time = 31.28 s     (62.6 %), step = 500 ms          (1 %)
    tran: time = 33.78 s     (67.6 %), step = 500 ms          (1 %)
    tran: time = 36.28 s     (72.6 %), step = 500 ms          (1 %)
    tran: time = 38.78 s     (77.6 %), step = 500 ms          (1 %)
    tran: time = 41.28 s     (82.6 %), step = 500 ms          (1 %)
    tran: time = 43.78 s     (87.6 %), step = 500 ms          (1 %)
    tran: time = 46.28 s     (92.6 %), step = 500 ms          (1 %)
    tran: time = 48.78 s     (97.6 %), step = 500 ms          (1 %)
Number of accepted tran steps =             709

Maximum value achieved for any signal of each quantity: 
V: V(vout) = 3.3 V
I: I(V8:p) = 6.356 uA

~~~~~~~~~~~~~~~~~~~~~~~~~~~~~~~~~
Post-Transient Simulation Summary
~~~~~~~~~~~~~~~~~~~~~~~~~~~~~~~~~
   -   To further speed up simulation, consider
          add ++aps on command line
   -   Non-default settings that could significantly slow down simulation
          errpreset = conservative, default moderate
          reltol = 10e-06, default 100e-06 (conservative)
~~~~~~~~~~~~~~~~~~~~~~~~~~~~~~~~~


During simulation, the CPU load for active processors is :
         0 (6.9 %)       1 (5.1 %)       2 (33.7 %)      3 (8.8 %)
         4 (13.8 %)      5 (6.1 %)       6 (67.7 %)      7 (37.5 %)
         8 (100.0 %)     9 (12.0 %)     10 (6.1 %)      11 (13.4 %)
        12 (43.6 %)     13 (8.9 %)      14 (24.5 %)     15 (38.6 %)
        16 (67.4 %)     17 (19.8 %)     18 (31.0 %)     19 (7.7 %)
        20 (19.8 %)     21 (33.7 %)     22 (9.2 %)      23 (9.2 %)
        24 (33.7 %)     25 (100.0 %)    26 (41.3 %)     27 (9.7 %)
        28 (42.8 %)     29 (7.7 %)      30 (27.5 %)     31 (14.9 %)
        32 (10.6 %)     33 (3.4 %)      34 (3.4 %)      35 (4.7 %)
        36 (36.7 %)     37 (100.0 %)    38 (62.0 %)     39 (16.4 %)
        40 (9.2 %)      41 (12.3 %)     42 (7.4 %)      43 (6.4 %)
        44 (18.9 %)     45 (11.3 %)     46 (27.1 %)     47 (7.5 %)
        Total: 1239.2%
Initial condition solution time: CPU = 2.537 ms, elapsed = 2.58589 ms.
Intrinsic tran analysis time:    CPU = 412.557 ms, elapsed = 414.05 ms.
Total time required for tran analysis `tran': CPU = 417.461 ms, elapsed = 420.418 ms, util. = 99.3%.
Time accumulated: CPU = 2.47471 s, elapsed = 3.07388 s.
Peak resident memory used = 213 Mbytes.


Notice from spectre during transient analysis `tran', during Monte Carlo analysis `mc1'.
    34 warnings suppressed.

finalTimeOP: writing operating point information to rawfile.

Opening the PSF file ../psf/mc1_separate/054/finalTimeOP.info ...
modelParameter: writing model parameter values to rawfile.

Opening the PSF file ../psf/mc1_separate/054/modelParameter.info ...
element: writing instance parameter values to rawfile.

Opening the PSF file ../psf/mc1_separate/054/element.info ...
outputParameter: writing output parameter values to rawfile.

Opening the PSF file ../psf/mc1_separate/054/outputParameter.info ...
designParamVals: writing netlist parameters to rawfile.

Opening the PSFASCII file ../psf/mc1_separate/054/designParamVals.info ...
primitives: writing primitives to rawfile.

Opening the PSFASCII file ../psf/mc1_separate/054/primitives.info.primitives ...
subckts: writing subcircuits to rawfile.

Opening the PSFASCII file ../psf/mc1_separate/054/subckts.info.subckts ...
    mc1: iteration = 54          (12.5 %), step = 1            (4.17 %)
55  16.67% 

*****************************************************************************************
* 
* INFO: AMS_processOption = C35B4C3
* 
* INFO: Valid Modules  PIP VG5 HIRES
* 
*****************************************************************************************


Notice from spectre during Monte Carlo analysis `mc1'.
    V8: `period' has the unusually large value of 100 s.


***********************************************
Transient Analysis `tran': time = (0 s -> 50 s)
***********************************************

Opening the PSF file ../psf/mc1_separate/055/tran.tran.tran ...

Warning from spectre during check, during IC analysis, during transient analysis `tran', during Monte Carlo analysis `mc1'.
    WARNING (CMI-2943): Parameter checks have been ignored because the valid value for parameter 'trise' could not be found in 'C1'.
    WARNING (CMI-2943): Parameter checks have been ignored because the valid value for parameter 'trise' could not be found in 'I0.R2.CM'.
    WARNING (CMI-2943): Parameter checks have been ignored because the valid value for parameter 'trise' could not be found in 'I0.R2.CS1'.
    WARNING (CMI-2943): Parameter checks have been ignored because the valid value for parameter 'trise' could not be found in 'I0.R2.CS0'.
    WARNING (CMI-2943): Parameter checks have been ignored because the valid value for parameter 'trise' could not be found in 'I0.C8<3>.C1'.
        Further occurrences of this warning will be suppressed.

Convergence achieved in 12 iterations.
DC simulation time: CPU = 2.399 ms, elapsed = 2.39897 ms.
Important parameter values:
    start = 0 s
    outputstart = 0 s
    stop = 50 s
    step = 50 ms
    maxstep = 500 ms
    ic = all
    useprevic = no
    skipdc = no
    reltol = 10e-06
    abstol(V) = 1 uV
    abstol(I) = 1 pA
    temp = 27 C
    tnom = 27 C
    tempeffects = all
    errpreset = conservative
    method = gear2only
    lteratio = 10
    relref = alllocal
    cmin = 0 F
    gmin = 1 pS
    rabsshort = 1 mOhm


Notice from spectre during transient analysis `tran', during Monte Carlo analysis `mc1'.
    Multithreading is disabled due to the size of the design being too small.


Output and IC/nodeset summary:
                 save   8       (current)
                 save   83      (voltage)

    tran: time = 1.279 s     (2.56 %), step = 142.8 ms     (286 m%)
    tran: time = 3.99 s      (7.98 %), step = 400.3 ms     (801 m%)
    tran: time = 6.389 s     (12.8 %), step = 500 ms          (1 %)
    tran: time = 8.889 s     (17.8 %), step = 500 ms          (1 %)
    tran: time = 11.39 s     (22.8 %), step = 500 ms          (1 %)
    tran: time = 13.89 s     (27.8 %), step = 500 ms          (1 %)
    tran: time = 16.39 s     (32.8 %), step = 500 ms          (1 %)
    tran: time = 18.89 s     (37.8 %), step = 500 ms          (1 %)
    tran: time = 21.39 s     (42.8 %), step = 500 ms          (1 %)
    tran: time = 23.89 s     (47.8 %), step = 500 ms          (1 %)
    tran: time = 26.39 s     (52.8 %), step = 500 ms          (1 %)
    tran: time = 28.89 s     (57.8 %), step = 500 ms          (1 %)
    tran: time = 31.39 s     (62.8 %), step = 500 ms          (1 %)
    tran: time = 33.89 s     (67.8 %), step = 500 ms          (1 %)
    tran: time = 36.39 s     (72.8 %), step = 500 ms          (1 %)
    tran: time = 38.89 s     (77.8 %), step = 500 ms          (1 %)
    tran: time = 41.39 s     (82.8 %), step = 500 ms          (1 %)
    tran: time = 43.89 s     (87.8 %), step = 500 ms          (1 %)
    tran: time = 46.39 s     (92.8 %), step = 500 ms          (1 %)
    tran: time = 48.89 s     (97.8 %), step = 500 ms          (1 %)
Number of accepted tran steps =             698

Maximum value achieved for any signal of each quantity: 
V: V(S<0>) = 3.3 V
I: I(V8:p) = 7.134 uA
Maximum value of each quantity, excluding Verilog-A modules or dangling current sources:
V: V(vout_filt) = 3.223 V
I: I(V8:p) = 7.134 uA

~~~~~~~~~~~~~~~~~~~~~~~~~~~~~~~~~
Post-Transient Simulation Summary
~~~~~~~~~~~~~~~~~~~~~~~~~~~~~~~~~
   -   To further speed up simulation, consider
          add ++aps on command line
   -   Non-default settings that could significantly slow down simulation
          errpreset = conservative, default moderate
          reltol = 10e-06, default 100e-06 (conservative)
~~~~~~~~~~~~~~~~~~~~~~~~~~~~~~~~~


During simulation, the CPU load for active processors is :
         0 (7.4 %)       1 (8.5 %)       2 (30.7 %)      3 (8.2 %)
         4 (12.8 %)      5 (6.5 %)       6 (72.1 %)      7 (43.6 %)
         8 (100.0 %)     9 (14.8 %)     10 (9.6 %)      11 (12.8 %)
        12 (39.4 %)     13 (9.2 %)      14 (34.0 %)     15 (45.7 %)
        16 (71.8 %)     17 (18.9 %)     18 (27.4 %)     19 (7.0 %)
        20 (17.3 %)     21 (30.4 %)     22 (15.9 %)     23 (8.3 %)
        24 (32.9 %)     25 (100.0 %)    26 (44.3 %)     27 (9.0 %)
        28 (39.2 %)     29 (8.2 %)      30 (24.5 %)     31 (17.6 %)
        32 (10.6 %)     33 (3.2 %)      34 (3.2 %)      35 (4.4 %)
        36 (44.9 %)     37 (100.0 %)    38 (54.5 %)     39 (16.8 %)
        40 (8.6 %)      41 (22.4 %)     42 (8.5 %)      43 (5.6 %)
        44 (19.2 %)     45 (17.4 %)     46 (24.3 %)     47 (7.6 %)
        Total: 1279.4%
Initial condition solution time: CPU = 2.439 ms, elapsed = 2.44212 ms.
Intrinsic tran analysis time:    CPU = 403.445 ms, elapsed = 404.959 ms.
Total time required for tran analysis `tran': CPU = 408.263 ms, elapsed = 410.369 ms, util. = 99.5%.
Time accumulated: CPU = 2.92711 s, elapsed = 3.53936 s.
Peak resident memory used = 213 Mbytes.


Notice from spectre during transient analysis `tran', during Monte Carlo analysis `mc1'.
    34 warnings suppressed.

finalTimeOP: writing operating point information to rawfile.

Opening the PSF file ../psf/mc1_separate/055/finalTimeOP.info ...
modelParameter: writing model parameter values to rawfile.

Opening the PSF file ../psf/mc1_separate/055/modelParameter.info ...
element: writing instance parameter values to rawfile.

Opening the PSF file ../psf/mc1_separate/055/element.info ...
outputParameter: writing output parameter values to rawfile.

Opening the PSF file ../psf/mc1_separate/055/outputParameter.info ...
designParamVals: writing netlist parameters to rawfile.

Opening the PSFASCII file ../psf/mc1_separate/055/designParamVals.info ...
primitives: writing primitives to rawfile.

Opening the PSFASCII file ../psf/mc1_separate/055/primitives.info.primitives ...
subckts: writing subcircuits to rawfile.

Opening the PSFASCII file ../psf/mc1_separate/055/subckts.info.subckts ...
    mc1: iteration = 55          (16.7 %), step = 1            (4.17 %)
56  20.83% 

*****************************************************************************************
* 
* INFO: AMS_processOption = C35B4C3
* 
* INFO: Valid Modules  PIP VG5 HIRES
* 
*****************************************************************************************


Notice from spectre during Monte Carlo analysis `mc1'.
    V8: `period' has the unusually large value of 100 s.


***********************************************
Transient Analysis `tran': time = (0 s -> 50 s)
***********************************************

Opening the PSF file ../psf/mc1_separate/056/tran.tran.tran ...

Warning from spectre during check, during IC analysis, during transient analysis `tran', during Monte Carlo analysis `mc1'.
    WARNING (CMI-2943): Parameter checks have been ignored because the valid value for parameter 'trise' could not be found in 'C1'.
    WARNING (CMI-2943): Parameter checks have been ignored because the valid value for parameter 'trise' could not be found in 'I0.R2.CM'.
    WARNING (CMI-2943): Parameter checks have been ignored because the valid value for parameter 'trise' could not be found in 'I0.R2.CS1'.
    WARNING (CMI-2943): Parameter checks have been ignored because the valid value for parameter 'trise' could not be found in 'I0.R2.CS0'.
    WARNING (CMI-2943): Parameter checks have been ignored because the valid value for parameter 'trise' could not be found in 'I0.C8<3>.C1'.
        Further occurrences of this warning will be suppressed.

Convergence achieved in 12 iterations.
DC simulation time: CPU = 2.316 ms, elapsed = 2.31719 ms.
Important parameter values:
    start = 0 s
    outputstart = 0 s
    stop = 50 s
    step = 50 ms
    maxstep = 500 ms
    ic = all
    useprevic = no
    skipdc = no
    reltol = 10e-06
    abstol(V) = 1 uV
    abstol(I) = 1 pA
    temp = 27 C
    tnom = 27 C
    tempeffects = all
    errpreset = conservative
    method = gear2only
    lteratio = 10
    relref = alllocal
    cmin = 0 F
    gmin = 1 pS
    rabsshort = 1 mOhm


Notice from spectre during transient analysis `tran', during Monte Carlo analysis `mc1'.
    Multithreading is disabled due to the size of the design being too small.


Output and IC/nodeset summary:
                 save   8       (current)
                 save   83      (voltage)

    tran: time = 1.389 s     (2.78 %), step = 155 ms       (310 m%)
    tran: time = 3.883 s     (7.77 %), step = 396.1 ms     (792 m%)
    tran: time = 6.272 s     (12.5 %), step = 500 ms          (1 %)
    tran: time = 8.772 s     (17.5 %), step = 500 ms          (1 %)
    tran: time = 11.27 s     (22.5 %), step = 500 ms          (1 %)
    tran: time = 13.77 s     (27.5 %), step = 500 ms          (1 %)
    tran: time = 16.27 s     (32.5 %), step = 500 ms          (1 %)
    tran: time = 18.77 s     (37.5 %), step = 500 ms          (1 %)
    tran: time = 21.27 s     (42.5 %), step = 500 ms          (1 %)
    tran: time = 23.77 s     (47.5 %), step = 500 ms          (1 %)
    tran: time = 26.27 s     (52.5 %), step = 500 ms          (1 %)
    tran: time = 28.77 s     (57.5 %), step = 500 ms          (1 %)
    tran: time = 31.27 s     (62.5 %), step = 500 ms          (1 %)
    tran: time = 33.77 s     (67.5 %), step = 500 ms          (1 %)
    tran: time = 36.27 s     (72.5 %), step = 500 ms          (1 %)
    tran: time = 38.77 s     (77.5 %), step = 500 ms          (1 %)
    tran: time = 41.27 s     (82.5 %), step = 500 ms          (1 %)
    tran: time = 43.77 s     (87.5 %), step = 500 ms          (1 %)
    tran: time = 46.27 s     (92.5 %), step = 500 ms          (1 %)
    tran: time = 48.77 s     (97.5 %), step = 500 ms          (1 %)
Number of accepted tran steps =             700

Maximum value achieved for any signal of each quantity: 
V: V(S<0>) = 3.3 V
I: I(V8:p) = 7.05 uA
Maximum value of each quantity, excluding Verilog-A modules or dangling current sources:
V: V(vout_filt) = 3.259 V
I: I(V8:p) = 7.05 uA

~~~~~~~~~~~~~~~~~~~~~~~~~~~~~~~~~
Post-Transient Simulation Summary
~~~~~~~~~~~~~~~~~~~~~~~~~~~~~~~~~
   -   To further speed up simulation, consider
          add ++aps on command line
   -   Non-default settings that could significantly slow down simulation
          errpreset = conservative, default moderate
          reltol = 10e-06, default 100e-06 (conservative)
~~~~~~~~~~~~~~~~~~~~~~~~~~~~~~~~~


During simulation, the CPU load for active processors is :
         0 (7.1 %)       1 (18.5 %)      2 (27.7 %)      3 (8.0 %)
         4 (11.3 %)      5 (6.2 %)       6 (75.4 %)      7 (39.3 %)
         8 (100.0 %)     9 (24.4 %)     10 (17.9 %)     11 (12.1 %)
        12 (37.8 %)     13 (13.3 %)     14 (40.3 %)     15 (50.9 %)
        16 (74.7 %)     17 (19.5 %)     18 (25.1 %)     19 (6.7 %)
        20 (22.1 %)     21 (27.6 %)     22 (14.8 %)     23 (8.1 %)
        24 (29.3 %)     25 (100.0 %)    26 (39.4 %)     27 (8.4 %)
        28 (35.2 %)     29 (7.2 %)      30 (29.3 %)     31 (27.3 %)
        32 (9.8 %)      33 (8.0 %)      34 (3.1 %)      35 (4.3 %)
        36 (51.4 %)     37 (100.0 %)    38 (54.4 %)     39 (17.6 %)
        40 (8.3 %)      41 (20.5 %)     42 (10.1 %)     43 (5.9 %)
        44 (19.7 %)     45 (15.3 %)     46 (22.1 %)     47 (7.5 %)
        Total: 1323.2%
Initial condition solution time: CPU = 2.372 ms, elapsed = 2.37393 ms.
Intrinsic tran analysis time:    CPU = 411.652 ms, elapsed = 413.163 ms.
Total time required for tran analysis `tran': CPU = 416.549 ms, elapsed = 418.664 ms, util. = 99.5%.
Time accumulated: CPU = 3.38717 s, elapsed = 4.01237 s.
Peak resident memory used = 213 Mbytes.


Notice from spectre during transient analysis `tran', during Monte Carlo analysis `mc1'.
    34 warnings suppressed.

finalTimeOP: writing operating point information to rawfile.

Opening the PSF file ../psf/mc1_separate/056/finalTimeOP.info ...
modelParameter: writing model parameter values to rawfile.

Opening the PSF file ../psf/mc1_separate/056/modelParameter.info ...
element: writing instance parameter values to rawfile.

Opening the PSF file ../psf/mc1_separate/056/element.info ...
outputParameter: writing output parameter values to rawfile.

Opening the PSF file ../psf/mc1_separate/056/outputParameter.info ...
designParamVals: writing netlist parameters to rawfile.

Opening the PSFASCII file ../psf/mc1_separate/056/designParamVals.info ...
primitives: writing primitives to rawfile.

Opening the PSFASCII file ../psf/mc1_separate/056/primitives.info.primitives ...
subckts: writing subcircuits to rawfile.

Opening the PSFASCII file ../psf/mc1_separate/056/subckts.info.subckts ...
    mc1: iteration = 56          (20.8 %), step = 1            (4.17 %)
57  25.00% 

*****************************************************************************************
* 
* INFO: AMS_processOption = C35B4C3
* 
* INFO: Valid Modules  PIP VG5 HIRES
* 
*****************************************************************************************


Notice from spectre during Monte Carlo analysis `mc1'.
    V8: `period' has the unusually large value of 100 s.


***********************************************
Transient Analysis `tran': time = (0 s -> 50 s)
***********************************************

Opening the PSF file ../psf/mc1_separate/057/tran.tran.tran ...

Warning from spectre during check, during IC analysis, during transient analysis `tran', during Monte Carlo analysis `mc1'.
    WARNING (CMI-2943): Parameter checks have been ignored because the valid value for parameter 'trise' could not be found in 'C1'.
    WARNING (CMI-2943): Parameter checks have been ignored because the valid value for parameter 'trise' could not be found in 'I0.R2.CM'.
    WARNING (CMI-2943): Parameter checks have been ignored because the valid value for parameter 'trise' could not be found in 'I0.R2.CS1'.
    WARNING (CMI-2943): Parameter checks have been ignored because the valid value for parameter 'trise' could not be found in 'I0.R2.CS0'.
    WARNING (CMI-2943): Parameter checks have been ignored because the valid value for parameter 'trise' could not be found in 'I0.C8<3>.C1'.
        Further occurrences of this warning will be suppressed.

Convergence achieved in 12 iterations.
DC simulation time: CPU = 2.663 ms, elapsed = 2.6629 ms.
Important parameter values:
    start = 0 s
    outputstart = 0 s
    stop = 50 s
    step = 50 ms
    maxstep = 500 ms
    ic = all
    useprevic = no
    skipdc = no
    reltol = 10e-06
    abstol(V) = 1 uV
    abstol(I) = 1 pA
    temp = 27 C
    tnom = 27 C
    tempeffects = all
    errpreset = conservative
    method = gear2only
    lteratio = 10
    relref = alllocal
    cmin = 0 F
    gmin = 1 pS
    rabsshort = 1 mOhm


Notice from spectre during transient analysis `tran', during Monte Carlo analysis `mc1'.
    Multithreading is disabled due to the size of the design being too small.


Output and IC/nodeset summary:
                 save   8       (current)
                 save   83      (voltage)

    tran: time = 1.324 s     (2.65 %), step = 149.7 ms     (299 m%)
    tran: time = 4.108 s     (8.22 %), step = 392.2 ms     (784 m%)
    tran: time = 6.421 s     (12.8 %), step = 500 ms          (1 %)
    tran: time = 8.921 s     (17.8 %), step = 500 ms          (1 %)
    tran: time = 11.42 s     (22.8 %), step = 500 ms          (1 %)
    tran: time = 13.92 s     (27.8 %), step = 500 ms          (1 %)
    tran: time = 16.42 s     (32.8 %), step = 500 ms          (1 %)
    tran: time = 18.92 s     (37.8 %), step = 500 ms          (1 %)
    tran: time = 21.42 s     (42.8 %), step = 500 ms          (1 %)
    tran: time = 23.92 s     (47.8 %), step = 500 ms          (1 %)
    tran: time = 26.42 s     (52.8 %), step = 500 ms          (1 %)
    tran: time = 28.92 s     (57.8 %), step = 500 ms          (1 %)
    tran: time = 31.42 s     (62.8 %), step = 500 ms          (1 %)
    tran: time = 33.92 s     (67.8 %), step = 500 ms          (1 %)
    tran: time = 36.42 s     (72.8 %), step = 500 ms          (1 %)
    tran: time = 38.92 s     (77.8 %), step = 500 ms          (1 %)
    tran: time = 41.42 s     (82.8 %), step = 500 ms          (1 %)
    tran: time = 43.92 s     (87.8 %), step = 500 ms          (1 %)
    tran: time = 46.42 s     (92.8 %), step = 500 ms          (1 %)
    tran: time = 48.92 s     (97.8 %), step = 500 ms          (1 %)
Number of accepted tran steps =             702

Maximum value achieved for any signal of each quantity: 
V: V(vout) = 3.3 V
I: I(V8:p) = 6.381 uA

~~~~~~~~~~~~~~~~~~~~~~~~~~~~~~~~~
Post-Transient Simulation Summary
~~~~~~~~~~~~~~~~~~~~~~~~~~~~~~~~~
   -   To further speed up simulation, consider
          add ++aps on command line
   -   Non-default settings that could significantly slow down simulation
          errpreset = conservative, default moderate
          reltol = 10e-06, default 100e-06 (conservative)
~~~~~~~~~~~~~~~~~~~~~~~~~~~~~~~~~


During simulation, the CPU load for active processors is :
         0 (7.5 %)       1 (24.0 %)      2 (27.3 %)      3 (7.4 %)
         4 (10.3 %)      5 (5.5 %)       6 (78.1 %)      7 (45.6 %)
         8 (100.0 %)     9 (22.0 %)     10 (16.2 %)     11 (11.0 %)
        12 (35.7 %)     13 (14.4 %)     14 (36.4 %)     15 (53.0 %)
        16 (69.7 %)     17 (20.2 %)     18 (30.6 %)     19 (14.0 %)
        20 (28.9 %)     21 (25.1 %)     22 (16.6 %)     23 (7.4 %)
        24 (26.8 %)     25 (100.0 %)    26 (35.6 %)     27 (8.2 %)
        28 (31.7 %)     29 (7.1 %)      30 (37.0 %)     31 (35.1 %)
        32 (9.3 %)      33 (17.0 %)     34 (3.4 %)      35 (4.1 %)
        36 (56.4 %)     37 (100.0 %)    38 (49.0 %)     39 (16.2 %)
        40 (8.1 %)      41 (20.4 %)     42 (11.5 %)     43 (6.2 %)
        44 (19.9 %)     45 (13.9 %)     46 (28.5 %)     47 (7.1 %)
        Total: 1359.4%
Initial condition solution time: CPU = 2.713 ms, elapsed = 2.71416 ms.
Intrinsic tran analysis time:    CPU = 408.999 ms, elapsed = 410.36 ms.
Total time required for tran analysis `tran': CPU = 414.291 ms, elapsed = 416.241 ms, util. = 99.5%.
Time accumulated: CPU = 3.84909 s, elapsed = 4.48716 s.
Peak resident memory used = 213 Mbytes.


Notice from spectre during transient analysis `tran', during Monte Carlo analysis `mc1'.
    34 warnings suppressed.

finalTimeOP: writing operating point information to rawfile.

Opening the PSF file ../psf/mc1_separate/057/finalTimeOP.info ...
modelParameter: writing model parameter values to rawfile.

Opening the PSF file ../psf/mc1_separate/057/modelParameter.info ...
element: writing instance parameter values to rawfile.

Opening the PSF file ../psf/mc1_separate/057/element.info ...
outputParameter: writing output parameter values to rawfile.

Opening the PSF file ../psf/mc1_separate/057/outputParameter.info ...
designParamVals: writing netlist parameters to rawfile.

Opening the PSFASCII file ../psf/mc1_separate/057/designParamVals.info ...
primitives: writing primitives to rawfile.

Opening the PSFASCII file ../psf/mc1_separate/057/primitives.info.primitives ...
subckts: writing subcircuits to rawfile.

Opening the PSFASCII file ../psf/mc1_separate/057/subckts.info.subckts ...
    mc1: iteration = 57            (25 %), step = 1            (4.17 %)
58  29.17% 

*****************************************************************************************
* 
* INFO: AMS_processOption = C35B4C3
* 
* INFO: Valid Modules  PIP VG5 HIRES
* 
*****************************************************************************************


Notice from spectre during Monte Carlo analysis `mc1'.
    V8: `period' has the unusually large value of 100 s.


***********************************************
Transient Analysis `tran': time = (0 s -> 50 s)
***********************************************

Opening the PSF file ../psf/mc1_separate/058/tran.tran.tran ...

Warning from spectre during check, during IC analysis, during transient analysis `tran', during Monte Carlo analysis `mc1'.
    WARNING (CMI-2943): Parameter checks have been ignored because the valid value for parameter 'trise' could not be found in 'C1'.
    WARNING (CMI-2943): Parameter checks have been ignored because the valid value for parameter 'trise' could not be found in 'I0.R2.CM'.
    WARNING (CMI-2943): Parameter checks have been ignored because the valid value for parameter 'trise' could not be found in 'I0.R2.CS1'.
    WARNING (CMI-2943): Parameter checks have been ignored because the valid value for parameter 'trise' could not be found in 'I0.R2.CS0'.
    WARNING (CMI-2943): Parameter checks have been ignored because the valid value for parameter 'trise' could not be found in 'I0.C8<3>.C1'.
        Further occurrences of this warning will be suppressed.

Convergence achieved in 12 iterations.
DC simulation time: CPU = 2.577 ms, elapsed = 2.57683 ms.
Important parameter values:
    start = 0 s
    outputstart = 0 s
    stop = 50 s
    step = 50 ms
    maxstep = 500 ms
    ic = all
    useprevic = no
    skipdc = no
    reltol = 10e-06
    abstol(V) = 1 uV
    abstol(I) = 1 pA
    temp = 27 C
    tnom = 27 C
    tempeffects = all
    errpreset = conservative
    method = gear2only
    lteratio = 10
    relref = alllocal
    cmin = 0 F
    gmin = 1 pS
    rabsshort = 1 mOhm


Notice from spectre during transient analysis `tran', during Monte Carlo analysis `mc1'.
    Multithreading is disabled due to the size of the design being too small.


Output and IC/nodeset summary:
                 save   8       (current)
                 save   83      (voltage)

    tran: time = 1.27 s      (2.54 %), step = 139.4 ms     (279 m%)
    tran: time = 3.919 s     (7.84 %), step = 398.2 ms     (796 m%)
    tran: time = 6.325 s     (12.7 %), step = 500 ms          (1 %)
    tran: time = 8.825 s     (17.7 %), step = 500 ms          (1 %)
    tran: time = 11.33 s     (22.7 %), step = 500 ms          (1 %)
    tran: time = 13.83 s     (27.7 %), step = 500 ms          (1 %)
    tran: time = 16.33 s     (32.7 %), step = 500 ms          (1 %)
    tran: time = 18.83 s     (37.7 %), step = 500 ms          (1 %)
    tran: time = 21.33 s     (42.7 %), step = 500 ms          (1 %)
    tran: time = 23.83 s     (47.7 %), step = 500 ms          (1 %)
    tran: time = 26.33 s     (52.7 %), step = 500 ms          (1 %)
    tran: time = 28.83 s     (57.7 %), step = 500 ms          (1 %)
    tran: time = 31.33 s     (62.7 %), step = 500 ms          (1 %)
    tran: time = 33.83 s     (67.7 %), step = 500 ms          (1 %)
    tran: time = 36.33 s     (72.7 %), step = 500 ms          (1 %)
    tran: time = 38.83 s     (77.7 %), step = 500 ms          (1 %)
    tran: time = 41.33 s     (82.7 %), step = 500 ms          (1 %)
    tran: time = 43.83 s     (87.7 %), step = 500 ms          (1 %)
    tran: time = 46.33 s     (92.7 %), step = 500 ms          (1 %)
    tran: time = 48.83 s     (97.7 %), step = 500 ms          (1 %)
Number of accepted tran steps =             688

Maximum value achieved for any signal of each quantity: 
V: V(S<0>) = 3.3 V
I: I(V8:p) = 6.906 uA
Maximum value of each quantity, excluding Verilog-A modules or dangling current sources:
V: V(vout_filt) = 3.047 V
I: I(V8:p) = 6.906 uA

~~~~~~~~~~~~~~~~~~~~~~~~~~~~~~~~~
Post-Transient Simulation Summary
~~~~~~~~~~~~~~~~~~~~~~~~~~~~~~~~~
   -   To further speed up simulation, consider
          add ++aps on command line
   -   Non-default settings that could significantly slow down simulation
          errpreset = conservative, default moderate
          reltol = 10e-06, default 100e-06 (conservative)
~~~~~~~~~~~~~~~~~~~~~~~~~~~~~~~~~


During simulation, the CPU load for active processors is :
         0 (7.0 %)       1 (21.8 %)      2 (24.7 %)      3 (6.9 %)
         4 (9.6 %)       5 (5.0 %)       6 (80.2 %)      7 (50.2 %)
         8 (100.0 %)     9 (20.4 %)     10 (15.9 %)     11 (12.0 %)
        12 (32.9 %)     13 (14.7 %)     14 (39.9 %)     15 (48.5 %)
        16 (63.6 %)     17 (18.7 %)     18 (29.4 %)     19 (21.4 %)
        20 (32.2 %)     21 (30.4 %)     22 (20.6 %)     23 (7.6 %)
        24 (25.2 %)     25 (100.0 %)    26 (38.5 %)     27 (12.2 %)
        28 (29.1 %)     29 (7.1 %)      30 (43.0 %)     31 (41.0 %)
        32 (8.8 %)      33 (15.9 %)     34 (3.3 %)      35 (3.9 %)
        36 (60.2 %)     37 (100.0 %)    38 (45.4 %)     39 (15.3 %)
        40 (8.4 %)      41 (19.5 %)     42 (11.7 %)     43 (5.8 %)
        44 (19.9 %)     45 (13.5 %)     46 (35.0 %)     47 (6.9 %)
        Total: 1383.4%
Initial condition solution time: CPU = 2.635 ms, elapsed = 2.63715 ms.
Intrinsic tran analysis time:    CPU = 398.423 ms, elapsed = 399.816 ms.
Total time required for tran analysis `tran': CPU = 403.889 ms, elapsed = 405.991 ms, util. = 99.5%.
Time accumulated: CPU = 4.29736 s, elapsed = 4.94869 s.
Peak resident memory used = 213 Mbytes.


Notice from spectre during transient analysis `tran', during Monte Carlo analysis `mc1'.
    34 warnings suppressed.

finalTimeOP: writing operating point information to rawfile.

Opening the PSF file ../psf/mc1_separate/058/finalTimeOP.info ...
modelParameter: writing model parameter values to rawfile.

Opening the PSF file ../psf/mc1_separate/058/modelParameter.info ...
element: writing instance parameter values to rawfile.

Opening the PSF file ../psf/mc1_separate/058/element.info ...
outputParameter: writing output parameter values to rawfile.

Opening the PSF file ../psf/mc1_separate/058/outputParameter.info ...
designParamVals: writing netlist parameters to rawfile.

Opening the PSFASCII file ../psf/mc1_separate/058/designParamVals.info ...
primitives: writing primitives to rawfile.

Opening the PSFASCII file ../psf/mc1_separate/058/primitives.info.primitives ...
subckts: writing subcircuits to rawfile.

Opening the PSFASCII file ../psf/mc1_separate/058/subckts.info.subckts ...
    mc1: iteration = 58          (29.2 %), step = 1            (4.17 %)
59  33.33% 

*****************************************************************************************
* 
* INFO: AMS_processOption = C35B4C3
* 
* INFO: Valid Modules  PIP VG5 HIRES
* 
*****************************************************************************************


Notice from spectre during Monte Carlo analysis `mc1'.
    V8: `period' has the unusually large value of 100 s.


***********************************************
Transient Analysis `tran': time = (0 s -> 50 s)
***********************************************

Opening the PSF file ../psf/mc1_separate/059/tran.tran.tran ...

Warning from spectre during check, during IC analysis, during transient analysis `tran', during Monte Carlo analysis `mc1'.
    WARNING (CMI-2943): Parameter checks have been ignored because the valid value for parameter 'trise' could not be found in 'C1'.
    WARNING (CMI-2943): Parameter checks have been ignored because the valid value for parameter 'trise' could not be found in 'I0.R2.CM'.
    WARNING (CMI-2943): Parameter checks have been ignored because the valid value for parameter 'trise' could not be found in 'I0.R2.CS1'.
    WARNING (CMI-2943): Parameter checks have been ignored because the valid value for parameter 'trise' could not be found in 'I0.R2.CS0'.
    WARNING (CMI-2943): Parameter checks have been ignored because the valid value for parameter 'trise' could not be found in 'I0.C8<3>.C1'.
        Further occurrences of this warning will be suppressed.

Convergence achieved in 12 iterations.
DC simulation time: CPU = 2.636 ms, elapsed = 2.64883 ms.
Important parameter values:
    start = 0 s
    outputstart = 0 s
    stop = 50 s
    step = 50 ms
    maxstep = 500 ms
    ic = all
    useprevic = no
    skipdc = no
    reltol = 10e-06
    abstol(V) = 1 uV
    abstol(I) = 1 pA
    temp = 27 C
    tnom = 27 C
    tempeffects = all
    errpreset = conservative
    method = gear2only
    lteratio = 10
    relref = alllocal
    cmin = 0 F
    gmin = 1 pS
    rabsshort = 1 mOhm


Notice from spectre during transient analysis `tran', during Monte Carlo analysis `mc1'.
    Multithreading is disabled due to the size of the design being too small.


Output and IC/nodeset summary:
                 save   8       (current)
                 save   83      (voltage)

    tran: time = 1.267 s     (2.53 %), step = 142 ms       (284 m%)
    tran: time = 3.938 s     (7.88 %), step = 386 ms       (772 m%)
    tran: time = 6.263 s     (12.5 %), step = 500 ms          (1 %)
    tran: time = 8.763 s     (17.5 %), step = 500 ms          (1 %)
    tran: time = 11.26 s     (22.5 %), step = 500 ms          (1 %)
    tran: time = 13.76 s     (27.5 %), step = 500 ms          (1 %)
    tran: time = 16.26 s     (32.5 %), step = 500 ms          (1 %)
    tran: time = 18.76 s     (37.5 %), step = 500 ms          (1 %)
    tran: time = 21.26 s     (42.5 %), step = 500 ms          (1 %)
    tran: time = 23.76 s     (47.5 %), step = 500 ms          (1 %)
    tran: time = 26.26 s     (52.5 %), step = 500 ms          (1 %)
    tran: time = 28.76 s     (57.5 %), step = 500 ms          (1 %)
    tran: time = 31.26 s     (62.5 %), step = 500 ms          (1 %)
    tran: time = 33.76 s     (67.5 %), step = 500 ms          (1 %)
    tran: time = 36.26 s     (72.5 %), step = 500 ms          (1 %)
    tran: time = 38.76 s     (77.5 %), step = 500 ms          (1 %)
    tran: time = 41.26 s     (82.5 %), step = 500 ms          (1 %)
    tran: time = 43.76 s     (87.5 %), step = 500 ms          (1 %)
    tran: time = 46.26 s     (92.5 %), step = 500 ms          (1 %)
    tran: time = 48.76 s     (97.5 %), step = 500 ms          (1 %)
Number of accepted tran steps =             708

Maximum value achieved for any signal of each quantity: 
V: V(vout) = 3.3 V
I: I(V8:p) = 6.372 uA

~~~~~~~~~~~~~~~~~~~~~~~~~~~~~~~~~
Post-Transient Simulation Summary
~~~~~~~~~~~~~~~~~~~~~~~~~~~~~~~~~
   -   To further speed up simulation, consider
          add ++aps on command line
   -   Non-default settings that could significantly slow down simulation
          errpreset = conservative, default moderate
          reltol = 10e-06, default 100e-06 (conservative)
~~~~~~~~~~~~~~~~~~~~~~~~~~~~~~~~~


During simulation, the CPU load for active processors is :
         0 (7.1 %)       1 (20.6 %)      2 (23.0 %)      3 (6.6 %)
         4 (9.1 %)       5 (4.8 %)       6 (82.0 %)      7 (49.6 %)
         8 (100.0 %)     9 (23.8 %)     10 (14.7 %)     11 (14.2 %)
        12 (30.7 %)     13 (13.8 %)     14 (45.1 %)     15 (45.5 %)
        16 (58.1 %)     17 (17.1 %)     18 (34.3 %)     19 (21.1 %)
        20 (38.0 %)     21 (32.7 %)     22 (19.2 %)     23 (15.5 %)
        24 (23.5 %)     25 (100.0 %)    26 (35.5 %)     27 (12.1 %)
        28 (26.7 %)     29 (7.2 %)      30 (47.8 %)     31 (42.5 %)
        32 (11.8 %)     33 (14.5 %)     34 (3.2 %)      35 (3.8 %)
        36 (63.4 %)     37 (100.0 %)    38 (43.0 %)     39 (15.5 %)
        40 (7.9 %)      41 (19.0 %)     42 (11.2 %)     43 (6.1 %)
        44 (21.0 %)     45 (12.8 %)     46 (38.3 %)     47 (6.8 %)
        Total: 1400.1%
Initial condition solution time: CPU = 2.678 ms, elapsed = 2.69294 ms.
Intrinsic tran analysis time:    CPU = 411.085 ms, elapsed = 412.832 ms.
Total time required for tran analysis `tran': CPU = 416.816 ms, elapsed = 419.211 ms, util. = 99.4%.
Time accumulated: CPU = 4.76042 s, elapsed = 5.42521 s.
Peak resident memory used = 213 Mbytes.


Notice from spectre during transient analysis `tran', during Monte Carlo analysis `mc1'.
    34 warnings suppressed.

finalTimeOP: writing operating point information to rawfile.

Opening the PSF file ../psf/mc1_separate/059/finalTimeOP.info ...
modelParameter: writing model parameter values to rawfile.

Opening the PSF file ../psf/mc1_separate/059/modelParameter.info ...
element: writing instance parameter values to rawfile.

Opening the PSF file ../psf/mc1_separate/059/element.info ...
outputParameter: writing output parameter values to rawfile.

Opening the PSF file ../psf/mc1_separate/059/outputParameter.info ...
designParamVals: writing netlist parameters to rawfile.

Opening the PSFASCII file ../psf/mc1_separate/059/designParamVals.info ...
primitives: writing primitives to rawfile.

Opening the PSFASCII file ../psf/mc1_separate/059/primitives.info.primitives ...
subckts: writing subcircuits to rawfile.

Opening the PSFASCII file ../psf/mc1_separate/059/subckts.info.subckts ...
    mc1: iteration = 59          (33.3 %), step = 1            (4.17 %)
60  37.50% 

*****************************************************************************************
* 
* INFO: AMS_processOption = C35B4C3
* 
* INFO: Valid Modules  PIP VG5 HIRES
* 
*****************************************************************************************


Notice from spectre during Monte Carlo analysis `mc1'.
    V8: `period' has the unusually large value of 100 s.


***********************************************
Transient Analysis `tran': time = (0 s -> 50 s)
***********************************************

Opening the PSF file ../psf/mc1_separate/060/tran.tran.tran ...

Warning from spectre during check, during IC analysis, during transient analysis `tran', during Monte Carlo analysis `mc1'.
    WARNING (CMI-2943): Parameter checks have been ignored because the valid value for parameter 'trise' could not be found in 'C1'.
    WARNING (CMI-2943): Parameter checks have been ignored because the valid value for parameter 'trise' could not be found in 'I0.R2.CM'.
    WARNING (CMI-2943): Parameter checks have been ignored because the valid value for parameter 'trise' could not be found in 'I0.R2.CS1'.
    WARNING (CMI-2943): Parameter checks have been ignored because the valid value for parameter 'trise' could not be found in 'I0.R2.CS0'.
    WARNING (CMI-2943): Parameter checks have been ignored because the valid value for parameter 'trise' could not be found in 'I0.C8<3>.C1'.
        Further occurrences of this warning will be suppressed.

Convergence achieved in 12 iterations.
DC simulation time: CPU = 2.43 ms, elapsed = 2.43115 ms.
Important parameter values:
    start = 0 s
    outputstart = 0 s
    stop = 50 s
    step = 50 ms
    maxstep = 500 ms
    ic = all
    useprevic = no
    skipdc = no
    reltol = 10e-06
    abstol(V) = 1 uV
    abstol(I) = 1 pA
    temp = 27 C
    tnom = 27 C
    tempeffects = all
    errpreset = conservative
    method = gear2only
    lteratio = 10
    relref = alllocal
    cmin = 0 F
    gmin = 1 pS
    rabsshort = 1 mOhm


Notice from spectre during transient analysis `tran', during Monte Carlo analysis `mc1'.
    Multithreading is disabled due to the size of the design being too small.


Output and IC/nodeset summary:
                 save   8       (current)
                 save   83      (voltage)

    tran: time = 1.292 s     (2.58 %), step = 146 ms       (292 m%)
    tran: time = 4.121 s     (8.24 %), step = 413.7 ms     (827 m%)
    tran: time = 6.53 s      (13.1 %), step = 500 ms          (1 %)
    tran: time = 9.03 s      (18.1 %), step = 500 ms          (1 %)
    tran: time = 11.53 s     (23.1 %), step = 500 ms          (1 %)
    tran: time = 14.03 s     (28.1 %), step = 500 ms          (1 %)
    tran: time = 16.53 s     (33.1 %), step = 500 ms          (1 %)
    tran: time = 19.03 s     (38.1 %), step = 500 ms          (1 %)
    tran: time = 21.53 s     (43.1 %), step = 500 ms          (1 %)
    tran: time = 24.03 s     (48.1 %), step = 500 ms          (1 %)
    tran: time = 26.53 s     (53.1 %), step = 500 ms          (1 %)
    tran: time = 29.03 s     (58.1 %), step = 500 ms          (1 %)
    tran: time = 31.53 s     (63.1 %), step = 500 ms          (1 %)
    tran: time = 34.03 s     (68.1 %), step = 500 ms          (1 %)
    tran: time = 36.53 s     (73.1 %), step = 500 ms          (1 %)
    tran: time = 39.03 s     (78.1 %), step = 500 ms          (1 %)
    tran: time = 41.53 s     (83.1 %), step = 500 ms          (1 %)
    tran: time = 44.03 s     (88.1 %), step = 500 ms          (1 %)
    tran: time = 46.53 s     (93.1 %), step = 500 ms          (1 %)
    tran: time = 49.03 s     (98.1 %), step = 500 ms          (1 %)
Number of accepted tran steps =             720

Maximum value achieved for any signal of each quantity: 
V: V(vout) = 3.3 V
I: I(V8:p) = 6.709 uA

~~~~~~~~~~~~~~~~~~~~~~~~~~~~~~~~~
Post-Transient Simulation Summary
~~~~~~~~~~~~~~~~~~~~~~~~~~~~~~~~~
   -   To further speed up simulation, consider
          add ++aps on command line
   -   Non-default settings that could significantly slow down simulation
          errpreset = conservative, default moderate
          reltol = 10e-06, default 100e-06 (conservative)
~~~~~~~~~~~~~~~~~~~~~~~~~~~~~~~~~


During simulation, the CPU load for active processors is :
         0 (6.9 %)       1 (19.1 %)      2 (22.8 %)      3 (11.5 %)
         4 (8.9 %)       5 (4.9 %)       6 (83.5 %)      7 (45.9 %)
         8 (100.0 %)     9 (30.2 %)     10 (13.7 %)     11 (13.7 %)
        12 (28.6 %)     13 (14.2 %)     14 (49.2 %)     15 (42.1 %)
        16 (53.6 %)     17 (16.1 %)     18 (32.5 %)     19 (26.2 %)
        20 (43.1 %)     21 (31.7 %)     22 (18.3 %)     23 (22.2 %)
        24 (22.1 %)     25 (100.0 %)    26 (32.7 %)     27 (11.7 %)
        28 (24.5 %)     29 (6.8 %)      30 (52.2 %)     31 (39.2 %)
        32 (18.8 %)     33 (13.4 %)     34 (3.1 %)      35 (3.6 %)
        36 (66.1 %)     37 (100.0 %)    38 (40.0 %)     39 (15.4 %)
        40 (8.6 %)      41 (18.8 %)     42 (10.4 %)     43 (5.9 %)
        44 (27.6 %)     45 (13.8 %)     46 (35.1 %)     47 (6.4 %)
        Total: 1415.0%
Initial condition solution time: CPU = 2.472 ms, elapsed = 2.47407 ms.
Intrinsic tran analysis time:    CPU = 420.335 ms, elapsed = 421.59 ms.
Total time required for tran analysis `tran': CPU = 425.194 ms, elapsed = 427.24 ms, util. = 99.5%.
Time accumulated: CPU = 5.22978 s, elapsed = 5.90767 s.
Peak resident memory used = 213 Mbytes.


Notice from spectre during transient analysis `tran', during Monte Carlo analysis `mc1'.
    34 warnings suppressed.

finalTimeOP: writing operating point information to rawfile.

Opening the PSF file ../psf/mc1_separate/060/finalTimeOP.info ...
modelParameter: writing model parameter values to rawfile.

Opening the PSF file ../psf/mc1_separate/060/modelParameter.info ...
element: writing instance parameter values to rawfile.

Opening the PSF file ../psf/mc1_separate/060/element.info ...
outputParameter: writing output parameter values to rawfile.

Opening the PSF file ../psf/mc1_separate/060/outputParameter.info ...
designParamVals: writing netlist parameters to rawfile.

Opening the PSFASCII file ../psf/mc1_separate/060/designParamVals.info ...
primitives: writing primitives to rawfile.

Opening the PSFASCII file ../psf/mc1_separate/060/primitives.info.primitives ...
subckts: writing subcircuits to rawfile.

Opening the PSFASCII file ../psf/mc1_separate/060/subckts.info.subckts ...
    mc1: iteration = 60          (37.5 %), step = 1            (4.17 %)
61  41.67% 

*****************************************************************************************
* 
* INFO: AMS_processOption = C35B4C3
* 
* INFO: Valid Modules  PIP VG5 HIRES
* 
*****************************************************************************************


Notice from spectre during Monte Carlo analysis `mc1'.
    V8: `period' has the unusually large value of 100 s.


***********************************************
Transient Analysis `tran': time = (0 s -> 50 s)
***********************************************

Opening the PSF file ../psf/mc1_separate/061/tran.tran.tran ...

Warning from spectre during check, during IC analysis, during transient analysis `tran', during Monte Carlo analysis `mc1'.
    WARNING (CMI-2943): Parameter checks have been ignored because the valid value for parameter 'trise' could not be found in 'C1'.
    WARNING (CMI-2943): Parameter checks have been ignored because the valid value for parameter 'trise' could not be found in 'I0.R2.CM'.
    WARNING (CMI-2943): Parameter checks have been ignored because the valid value for parameter 'trise' could not be found in 'I0.R2.CS1'.
    WARNING (CMI-2943): Parameter checks have been ignored because the valid value for parameter 'trise' could not be found in 'I0.R2.CS0'.
    WARNING (CMI-2943): Parameter checks have been ignored because the valid value for parameter 'trise' could not be found in 'I0.C8<3>.C1'.
        Further occurrences of this warning will be suppressed.

Convergence achieved in 12 iterations.
DC simulation time: CPU = 2.406 ms, elapsed = 2.40588 ms.
Important parameter values:
    start = 0 s
    outputstart = 0 s
    stop = 50 s
    step = 50 ms
    maxstep = 500 ms
    ic = all
    useprevic = no
    skipdc = no
    reltol = 10e-06
    abstol(V) = 1 uV
    abstol(I) = 1 pA
    temp = 27 C
    tnom = 27 C
    tempeffects = all
[...]
***********************************************

Opening the PSF file ../psf/mc1_separate/073/tran.tran.tran ...

Warning from spectre during check, during IC analysis, during transient analysis `tran', during Monte Carlo analysis `mc1'.
    WARNING (CMI-2943): Parameter checks have been ignored because the valid value for parameter 'trise' could not be found in 'C1'.
    WARNING (CMI-2943): Parameter checks have been ignored because the valid value for parameter 'trise' could not be found in 'I0.R2.CM'.
    WARNING (CMI-2943): Parameter checks have been ignored because the valid value for parameter 'trise' could not be found in 'I0.R2.CS1'.
    WARNING (CMI-2943): Parameter checks have been ignored because the valid value for parameter 'trise' could not be found in 'I0.R2.CS0'.
    WARNING (CMI-2943): Parameter checks have been ignored because the valid value for parameter 'trise' could not be found in 'I0.C8<3>.C1'.
        Further occurrences of this warning will be suppressed.

Convergence achieved in 12 iterations.
DC simulation time: CPU = 2.395 ms, elapsed = 2.39611 ms.
Important parameter values:
    start = 0 s
    outputstart = 0 s
    stop = 50 s
    step = 50 ms
    maxstep = 500 ms
    ic = all
    useprevic = no
    skipdc = no
    reltol = 10e-06
    abstol(V) = 1 uV
    abstol(I) = 1 pA
    temp = 27 C
    tnom = 27 C
    tempeffects = all
    errpreset = conservative
    method = gear2only
    lteratio = 10
    relref = alllocal
    cmin = 0 F
    gmin = 1 pS
    rabsshort = 1 mOhm


Notice from spectre during transient analysis `tran', during Monte Carlo analysis `mc1'.
    Multithreading is disabled due to the size of the design being too small.


Output and IC/nodeset summary:
                 save   8       (current)
                 save   83      (voltage)

    tran: time = 1.308 s     (2.62 %), step = 145.9 ms     (292 m%)
    tran: time = 4.113 s     (8.23 %), step = 413 ms       (826 m%)
    tran: time = 6.528 s     (13.1 %), step = 500 ms          (1 %)
    tran: time = 9.028 s     (18.1 %), step = 500 ms          (1 %)
    tran: time = 11.53 s     (23.1 %), step = 500 ms          (1 %)
    tran: time = 14.03 s     (28.1 %), step = 500 ms          (1 %)
    tran: time = 16.53 s     (33.1 %), step = 500 ms          (1 %)
    tran: time = 19.03 s     (38.1 %), step = 500 ms          (1 %)
    tran: time = 21.53 s     (43.1 %), step = 500 ms          (1 %)
    tran: time = 24.03 s     (48.1 %), step = 500 ms          (1 %)
    tran: time = 26.53 s     (53.1 %), step = 500 ms          (1 %)
    tran: time = 29.03 s     (58.1 %), step = 500 ms          (1 %)
    tran: time = 31.53 s     (63.1 %), step = 500 ms          (1 %)
    tran: time = 34.03 s     (68.1 %), step = 500 ms          (1 %)
    tran: time = 36.53 s     (73.1 %), step = 500 ms          (1 %)
    tran: time = 39.03 s     (78.1 %), step = 500 ms          (1 %)
    tran: time = 41.53 s     (83.1 %), step = 500 ms          (1 %)
    tran: time = 44.03 s     (88.1 %), step = 500 ms          (1 %)
    tran: time = 46.53 s     (93.1 %), step = 500 ms          (1 %)
    tran: time = 49.03 s     (98.1 %), step = 500 ms          (1 %)
Number of accepted tran steps =             708

Maximum value achieved for any signal of each quantity: 
V: V(vout) = 3.3 V
I: I(V8:p) = 6.464 uA

~~~~~~~~~~~~~~~~~~~~~~~~~~~~~~~~~
Post-Transient Simulation Summary
~~~~~~~~~~~~~~~~~~~~~~~~~~~~~~~~~
   -   To further speed up simulation, consider
          add ++aps on command line
   -   Non-default settings that could significantly slow down simulation
          errpreset = conservative, default moderate
          reltol = 10e-06, default 100e-06 (conservative)
~~~~~~~~~~~~~~~~~~~~~~~~~~~~~~~~~


During simulation, the CPU load for active processors is :
         0 (7.7 %)       1 (17.1 %)      2 (15.2 %)      3 (17.4 %)
         4 (16.8 %)      5 (9.8 %)       6 (56.9 %)      7 (30.3 %)
         8 (97.3 %)      9 (38.1 %)     10 (44.4 %)     11 (15.7 %)
        12 (20.0 %)     13 (16.7 %)     14 (54.4 %)     15 (30.4 %)
        16 (40.8 %)     17 (25.9 %)     18 (36.3 %)     19 (31.8 %)
        20 (46.6 %)     21 (24.6 %)     22 (28.4 %)     23 (34.1 %)
        24 (20.1 %)     25 (75.8 %)     26 (18.4 %)     27 (7.6 %)
        28 (13.9 %)     29 (5.5 %)      30 (64.4 %)     31 (29.2 %)
        32 (17.6 %)     33 (22.5 %)     34 (28.6 %)     35 (34.7 %)
        36 (46.5 %)     37 (100.0 %)    38 (34.8 %)     39 (23.1 %)
        40 (8.1 %)      41 (15.8 %)     42 (29.8 %)     43 (7.5 %)
        44 (29.5 %)     45 (15.5 %)     46 (28.7 %)     47 (22.0 %)
        Total: 1456.3%
Initial condition solution time: CPU = 2.434 ms, elapsed = 2.43616 ms.
Intrinsic tran analysis time:    CPU = 406.697 ms, elapsed = 407.918 ms.
Total time required for tran analysis `tran': CPU = 411.503 ms, elapsed = 413.341 ms, util. = 99.6%.
Time accumulated: CPU = 11.2339 s, elapsed = 12.0878 s.
Peak resident memory used = 213 Mbytes.


Notice from spectre during transient analysis `tran', during Monte Carlo analysis `mc1'.
    34 warnings suppressed.

finalTimeOP: writing operating point information to rawfile.

Opening the PSF file ../psf/mc1_separate/073/finalTimeOP.info ...
modelParameter: writing model parameter values to rawfile.

Opening the PSF file ../psf/mc1_separate/073/modelParameter.info ...
element: writing instance parameter values to rawfile.

Opening the PSF file ../psf/mc1_separate/073/element.info ...
outputParameter: writing output parameter values to rawfile.

Opening the PSF file ../psf/mc1_separate/073/outputParameter.info ...
designParamVals: writing netlist parameters to rawfile.

Opening the PSFASCII file ../psf/mc1_separate/073/designParamVals.info ...
primitives: writing primitives to rawfile.

Opening the PSFASCII file ../psf/mc1_separate/073/primitives.info.primitives ...
subckts: writing subcircuits to rawfile.

Opening the PSFASCII file ../psf/mc1_separate/073/subckts.info.subckts ...
    mc1: iteration = 73          (91.7 %), step = 1            (4.17 %)
74  95.83% 

*****************************************************************************************
* 
* INFO: AMS_processOption = C35B4C3
* 
* INFO: Valid Modules  PIP VG5 HIRES
* 
*****************************************************************************************


Notice from spectre during Monte Carlo analysis `mc1'.
    V8: `period' has the unusually large value of 100 s.


***********************************************
Transient Analysis `tran': time = (0 s -> 50 s)
***********************************************

Opening the PSF file ../psf/mc1_separate/074/tran.tran.tran ...

Warning from spectre during check, during IC analysis, during transient analysis `tran', during Monte Carlo analysis `mc1'.
    WARNING (CMI-2943): Parameter checks have been ignored because the valid value for parameter 'trise' could not be found in 'C1'.
    WARNING (CMI-2943): Parameter checks have been ignored because the valid value for parameter 'trise' could not be found in 'I0.R2.CM'.
    WARNING (CMI-2943): Parameter checks have been ignored because the valid value for parameter 'trise' could not be found in 'I0.R2.CS1'.
    WARNING (CMI-2943): Parameter checks have been ignored because the valid value for parameter 'trise' could not be found in 'I0.R2.CS0'.
    WARNING (CMI-2943): Parameter checks have been ignored because the valid value for parameter 'trise' could not be found in 'I0.C8<3>.C1'.
        Further occurrences of this warning will be suppressed.

Convergence achieved in 12 iterations.
DC simulation time: CPU = 2.396 ms, elapsed = 2.39778 ms.
Important parameter values:
    start = 0 s
    outputstart = 0 s
    stop = 50 s
    step = 50 ms
    maxstep = 500 ms
    ic = all
    useprevic = no
    skipdc = no
    reltol = 10e-06
    abstol(V) = 1 uV
    abstol(I) = 1 pA
    temp = 27 C
    tnom = 27 C
    tempeffects = all
    errpreset = conservative
    method = gear2only
    lteratio = 10
    relref = alllocal
    cmin = 0 F
    gmin = 1 pS
    rabsshort = 1 mOhm


Notice from spectre during transient analysis `tran', during Monte Carlo analysis `mc1'.
    Multithreading is disabled due to the size of the design being too small.


Output and IC/nodeset summary:
                 save   8       (current)
                 save   83      (voltage)

    tran: time = 1.294 s     (2.59 %), step = 138.6 ms     (277 m%)
    tran: time = 3.824 s     (7.65 %), step = 372 ms       (744 m%)
    tran: time = 6.664 s     (13.3 %), step = 500 ms          (1 %)
    tran: time = 9.164 s     (18.3 %), step = 500 ms          (1 %)
    tran: time = 11.66 s     (23.3 %), step = 500 ms          (1 %)
    tran: time = 14.16 s     (28.3 %), step = 500 ms          (1 %)
    tran: time = 16.66 s     (33.3 %), step = 500 ms          (1 %)
    tran: time = 19.16 s     (38.3 %), step = 500 ms          (1 %)
    tran: time = 21.66 s     (43.3 %), step = 500 ms          (1 %)
    tran: time = 24.16 s     (48.3 %), step = 500 ms          (1 %)
    tran: time = 26.66 s     (53.3 %), step = 500 ms          (1 %)
    tran: time = 29.16 s     (58.3 %), step = 500 ms          (1 %)
    tran: time = 31.66 s     (63.3 %), step = 500 ms          (1 %)
    tran: time = 34.16 s     (68.3 %), step = 500 ms          (1 %)
    tran: time = 36.66 s     (73.3 %), step = 500 ms          (1 %)
    tran: time = 39.16 s     (78.3 %), step = 500 ms          (1 %)
    tran: time = 41.66 s     (83.3 %), step = 500 ms          (1 %)
    tran: time = 44.16 s     (88.3 %), step = 500 ms          (1 %)
    tran: time = 46.66 s     (93.3 %), step = 500 ms          (1 %)
    tran: time = 49.16 s     (98.3 %), step = 500 ms          (1 %)
Number of accepted tran steps =             689

Maximum value achieved for any signal of each quantity: 
V: V(S<0>) = 3.3 V
I: I(V8:p) = 6.734 uA
Maximum value of each quantity, excluding Verilog-A modules or dangling current sources:
V: V(vout_filt) = 2.909 V
I: I(V8:p) = 6.734 uA

~~~~~~~~~~~~~~~~~~~~~~~~~~~~~~~~~
Post-Transient Simulation Summary
~~~~~~~~~~~~~~~~~~~~~~~~~~~~~~~~~
   -   To further speed up simulation, consider
          add ++aps on command line
   -   Non-default settings that could significantly slow down simulation
          errpreset = conservative, default moderate
          reltol = 10e-06, default 100e-06 (conservative)
~~~~~~~~~~~~~~~~~~~~~~~~~~~~~~~~~


During simulation, the CPU load for active processors is :
         0 (7.6 %)       1 (17.2 %)      2 (14.8 %)      3 (17.1 %)
         4 (16.3 %)      5 (9.7 %)       6 (55.2 %)      7 (30.8 %)
         8 (97.4 %)      9 (38.6 %)     10 (46.4 %)     11 (16.7 %)
        12 (19.7 %)     13 (18.3 %)     14 (56.1 %)     15 (29.6 %)
        16 (39.8 %)     17 (28.6 %)     18 (35.2 %)     19 (30.7 %)
        20 (45.0 %)     21 (23.8 %)     22 (27.8 %)     23 (33.0 %)
        24 (19.5 %)     25 (76.5 %)     26 (18.0 %)     27 (7.3 %)
        28 (13.6 %)     29 (5.4 %)      30 (62.2 %)     31 (28.3 %)
        32 (17.1 %)     33 (25.4 %)     34 (27.6 %)     35 (37.1 %)
        36 (46.2 %)     37 (100.0 %)    38 (34.0 %)     39 (22.9 %)
        40 (8.0 %)      41 (15.4 %)     42 (28.8 %)     43 (7.4 %)
        44 (31.8 %)     45 (15.7 %)     46 (31.2 %)     47 (21.3 %)
        Total: 1456.1%
Initial condition solution time: CPU = 2.438 ms, elapsed = 2.43998 ms.
Intrinsic tran analysis time:    CPU = 394.621 ms, elapsed = 396.2 ms.
Total time required for tran analysis `tran': CPU = 399.628 ms, elapsed = 401.878 ms, util. = 99.4%.
Time accumulated: CPU = 11.6769 s, elapsed = 12.544 s.
Peak resident memory used = 213 Mbytes.


Notice from spectre during transient analysis `tran', during Monte Carlo analysis `mc1'.
    34 warnings suppressed.

finalTimeOP: writing operating point information to rawfile.

Opening the PSF file ../psf/mc1_separate/074/finalTimeOP.info ...
modelParameter: writing model parameter values to rawfile.

Opening the PSF file ../psf/mc1_separate/074/modelParameter.info ...
element: writing instance parameter values to rawfile.

Opening the PSF file ../psf/mc1_separate/074/element.info ...
outputParameter: writing output parameter values to rawfile.

Opening the PSF file ../psf/mc1_separate/074/outputParameter.info ...
designParamVals: writing netlist parameters to rawfile.

Opening the PSFASCII file ../psf/mc1_separate/074/designParamVals.info ...
primitives: writing primitives to rawfile.

Opening the PSFASCII file ../psf/mc1_separate/074/primitives.info.primitives ...
subckts: writing subcircuits to rawfile.

Opening the PSFASCII file ../psf/mc1_separate/074/subckts.info.subckts ...
    mc1: iteration = 74          (95.8 %), step = 1            (4.17 %)
75 100.00% 

*****************************************************************************************
* 
* INFO: AMS_processOption = C35B4C3
* 
* INFO: Valid Modules  PIP VG5 HIRES
* 
*****************************************************************************************


Notice from spectre during Monte Carlo analysis `mc1'.
    V8: `period' has the unusually large value of 100 s.


***********************************************
Transient Analysis `tran': time = (0 s -> 50 s)
***********************************************

Opening the PSF file ../psf/mc1_separate/075/tran.tran.tran ...

Warning from spectre during check, during IC analysis, during transient analysis `tran', during Monte Carlo analysis `mc1'.
    WARNING (CMI-2943): Parameter checks have been ignored because the valid value for parameter 'trise' could not be found in 'C1'.
    WARNING (CMI-2943): Parameter checks have been ignored because the valid value for parameter 'trise' could not be found in 'I0.R2.CM'.
    WARNING (CMI-2943): Parameter checks have been ignored because the valid value for parameter 'trise' could not be found in 'I0.R2.CS1'.
    WARNING (CMI-2943): Parameter checks have been ignored because the valid value for parameter 'trise' could not be found in 'I0.R2.CS0'.
    WARNING (CMI-2943): Parameter checks have been ignored because the valid value for parameter 'trise' could not be found in 'I0.C8<3>.C1'.
        Further occurrences of this warning will be suppressed.

Convergence achieved in 12 iterations.
DC simulation time: CPU = 2.468 ms, elapsed = 2.46811 ms.
Important parameter values:
    start = 0 s
    outputstart = 0 s
    stop = 50 s
    step = 50 ms
    maxstep = 500 ms
    ic = all
    useprevic = no
    skipdc = no
    reltol = 10e-06
    abstol(V) = 1 uV
    abstol(I) = 1 pA
    temp = 27 C
    tnom = 27 C
    tempeffects = all
    errpreset = conservative
    method = gear2only
    lteratio = 10
    relref = alllocal
    cmin = 0 F
    gmin = 1 pS
    rabsshort = 1 mOhm


Notice from spectre during transient analysis `tran', during Monte Carlo analysis `mc1'.
    Multithreading is disabled due to the size of the design being too small.


Output and IC/nodeset summary:
                 save   8       (current)
                 save   83      (voltage)

    tran: time = 1.337 s     (2.67 %), step = 150.5 ms     (301 m%)
    tran: time = 3.789 s     (7.58 %), step = 389.6 ms     (779 m%)
    tran: time = 6.643 s     (13.3 %), step = 500 ms          (1 %)
    tran: time = 9.143 s     (18.3 %), step = 500 ms          (1 %)
    tran: time = 11.64 s     (23.3 %), step = 500 ms          (1 %)
    tran: time = 14.14 s     (28.3 %), step = 500 ms          (1 %)
    tran: time = 16.64 s     (33.3 %), step = 500 ms          (1 %)
    tran: time = 19.14 s     (38.3 %), step = 500 ms          (1 %)
    tran: time = 21.64 s     (43.3 %), step = 500 ms          (1 %)
    tran: time = 24.14 s     (48.3 %), step = 500 ms          (1 %)
    tran: time = 26.64 s     (53.3 %), step = 500 ms          (1 %)
    tran: time = 29.14 s     (58.3 %), step = 500 ms          (1 %)
    tran: time = 31.64 s     (63.3 %), step = 500 ms          (1 %)
    tran: time = 34.14 s     (68.3 %), step = 500 ms          (1 %)
    tran: time = 36.64 s     (73.3 %), step = 500 ms          (1 %)
    tran: time = 39.14 s     (78.3 %), step = 500 ms          (1 %)
    tran: time = 41.64 s     (83.3 %), step = 500 ms          (1 %)
    tran: time = 44.14 s     (88.3 %), step = 500 ms          (1 %)
    tran: time = 46.64 s     (93.3 %), step = 500 ms          (1 %)
    tran: time = 49.14 s     (98.3 %), step = 500 ms          (1 %)
Number of accepted tran steps =             704

Maximum value achieved for any signal of each quantity: 
V: V(S<0>) = 3.3 V
I: I(V8:p) = 6.493 uA

~~~~~~~~~~~~~~~~~~~~~~~~~~~~~~~~~
Post-Transient Simulation Summary
~~~~~~~~~~~~~~~~~~~~~~~~~~~~~~~~~
   -   To further speed up simulation, consider
          add ++aps on command line
   -   Non-default settings that could significantly slow down simulation
          errpreset = conservative, default moderate
          reltol = 10e-06, default 100e-06 (conservative)
~~~~~~~~~~~~~~~~~~~~~~~~~~~~~~~~~


During simulation, the CPU load for active processors is :
         0 (7.6 %)       1 (16.8 %)      2 (14.4 %)      3 (16.5 %)
         4 (15.9 %)      5 (9.5 %)       6 (53.4 %)      7 (30.5 %)
         8 (97.4 %)      9 (40.2 %)     10 (48.4 %)     11 (16.1 %)
        12 (19.5 %)     13 (18.2 %)     14 (57.1 %)     15 (28.6 %)
        16 (38.5 %)     17 (27.6 %)     18 (34.1 %)     19 (29.8 %)
        20 (43.6 %)     21 (23.0 %)     22 (27.0 %)     23 (32.1 %)
        24 (19.4 %)     25 (77.2 %)     26 (17.4 %)     27 (7.2 %)
        28 (13.2 %)     29 (5.3 %)      30 (60.3 %)     31 (27.4 %)
        32 (16.6 %)     33 (28.1 %)     34 (26.8 %)     35 (39.3 %)
        36 (47.1 %)     37 (100.0 %)    38 (36.4 %)     39 (22.5 %)
        40 (8.0 %)      41 (14.9 %)     42 (28.0 %)     43 (7.2 %)
        44 (30.6 %)     45 (15.6 %)     46 (33.4 %)     47 (20.8 %)
        Total: 1448.6%
Initial condition solution time: CPU = 2.522 ms, elapsed = 2.52414 ms.
Intrinsic tran analysis time:    CPU = 403.288 ms, elapsed = 405.431 ms.
Total time required for tran analysis `tran': CPU = 408.4 ms, elapsed = 411.174 ms, util. = 99.3%.
Time accumulated: CPU = 12.1291 s, elapsed = 13.0105 s.
Peak resident memory used = 213 Mbytes.


Notice from spectre during transient analysis `tran', during Monte Carlo analysis `mc1'.
    34 warnings suppressed.

finalTimeOP: writing operating point information to rawfile.

Opening the PSF file ../psf/mc1_separate/075/finalTimeOP.info ...
modelParameter: writing model parameter values to rawfile.

Opening the PSF file ../psf/mc1_separate/075/modelParameter.info ...
element: writing instance parameter values to rawfile.

Opening the PSF file ../psf/mc1_separate/075/element.info ...
outputParameter: writing output parameter values to rawfile.

Opening the PSF file ../psf/mc1_separate/075/outputParameter.info ...
designParamVals: writing netlist parameters to rawfile.

Opening the PSFASCII file ../psf/mc1_separate/075/designParamVals.info ...
primitives: writing primitives to rawfile.

Opening the PSFASCII file ../psf/mc1_separate/075/primitives.info.primitives ...
subckts: writing subcircuits to rawfile.

Opening the PSFASCII file ../psf/mc1_separate/075/subckts.info.subckts ...
    mc1: iteration = 75           (100 %), step = 1            (4.17 %)
Total time required for montecarlo analysis `mc1': CPU = 11.6648 s, elapsed = 12.0161 s, util. = 97.1%.
Time accumulated: CPU = 12.1573 s, elapsed = 13.0533 s.
Peak resident memory used = 213 Mbytes.

Licensing Information:
Lic Summary:
[09:47:40.218536] Cdslmd servers:3000@lic08.ug.kth.se:29000@lic06.ug.kth.se
[09:47:40.218585] Feature usage summary:
[09:47:40.218665] Virtuoso_Multi_mode_Simulation


Aggregate audit (9:47:40 AM, Thur Apr 16, 2026):
Time used: CPU = 12.2 s, elapsed = 13.1 s, util. = 93.1%.
Time spent in licensing: elapsed = 50.9 ms.
Peak memory used = 213 Mbytes.
Simulation started at: 9:47:27 AM, Thur Apr 16, 2026, ended at: 9:47:40 AM, Thur Apr 16, 2026, with elapsed time (wall clock): 13.1 s.
spectre completes with 0 errors, 142 warnings, and 83 notices.
