
Spectre (R) Circuit Simulator
Version 24.1.0.288.isr5 64bit -- 3 Apr 2025
Copyright (C) 1989-2025 Cadence Design Systems, Inc. All rights reserved worldwide. Cadence and Spectre are registered trademarks of Cadence Design Systems, Inc. All others are the property of their respective holders.

Includes RSA BSAFE(R) Cryptographic or Security Protocol Software from RSA Security, Inc.

User: davidevi   Host: il2244vt26_davidevi   HostID: 11AC2C00   PID: 1036481
Memory  available: 3.0394 TB  physical: 3.2467 TB
Linux   : Rocky Linux release 8.10 (Green Obsidian)
CPU Type: Intel(R) Xeon(R) CPU E7-8857 v2 @ 3.00GHz
        Socket: Processors [Frequency]
        0:       0 [2100.0],  1 [3600.0],  2 [3371.6],  3 [1200.0],  4 [3412.8]
                 5 [1200.0],  6 [1200.0],  7 [1200.0],  8 [1200.0],  9 [3600.0]
                10 [1200.0], 11 [3461.6]
        1:      12 [3399.9], 13 [1200.0], 14 [3600.0], 15 [2700.0], 16 [2500.0]
                17 [2900.0], 18 [3399.9], 19 [3600.0], 20 [2700.0], 21 [1500.0]
                22 [3399.9], 23 [2800.0]
        2:      24 [1200.0], 25 [1200.0], 26 [2999.9], 27 [2999.9], 28 [1200.0]
                29 [1200.0], 30 [1200.0], 31 [1200.0], 32 [1200.0], 33 [1200.0]
                34 [1200.0], 35 [2999.9]
        3:      36 [1200.0], 37 [2999.9], 38 [2300.0], 39 [1200.0], 40 [2600.0]
                41 [1200.0], 42 [1200.0], 43 [1200.0], 44 [2999.9], 45 [1200.0]
                46 [1200.0], 47 [1200.0]
        
System load averages (1min, 5min, 15min) : 28.8 %, 20.4 %, 16.7 %
HPC is enabled


Simulating `input.scs' on il2244vt26_davidevi at 8:24:18 AM, Thur Apr 16, 2026 (process id: 1036481).
Current working directory: /home/davidevi/Desktop/myproject/Sim/VGA/VGA_1_tb/adexl/results/data/MonteCarlo.1/40/xf/groupRunDataDir/netlist
Command line:
    /opt/tools/cadence/installs/SPECTRE241/tools/bin/spectre -64  \
        input.scs +escchars +log ../psf/spectre.out -format psfbin  \
        +rtsf -raw ../psf +aps +mt +lqtimeout 900 -maxw 5 -maxn 5  \
        +param /opt/pdk/ams/410/spectre/ams_range.lmts -env ade  \
        -ahdllibdir  \
        /home/davidevi/Desktop/myproject/Sim/VGA/VGA_1_tb/adexl/results/data/MonteCarlo.1/sharedData/Job465/ahdl/input.ahdlSimDB  \
        +logstatus  \
        +adespetkn=0001089D13A302B663E41FB550AF0DF415A679A322D5069144BF588C12F604E07EF416DC01A319B562BB63D303D1459845A3199066F046A304E103D61A8F4F9278AF79D15D9175FF34986BDD0AF002BA50FD7FD707E002A700AC1C8412FB4CE60EA979D120F874D3349879D118F874D3349810318448E8635D780000360B

Simulation Id: 1KLxP80y2p9660L7
Licensing Information:
[08:24:18.121786] Configured Lic search path (24.01-s002): 3000@lic08.ug.kth.se:29000@lic06.ug.kth.se

Licensing Information:
[08:24:18.166466] Periodic Lic check successful

Loading /opt/tools/cadence/installs/SPECTRE241/tools.lnx86/cmi/lib/64bit/5.0/libinfineon_sh.so ...
Loading /opt/tools/cadence/installs/SPECTRE241/tools.lnx86/cmi/lib/64bit/5.0/libphilips_I_sh.so ...
Loading /opt/tools/cadence/installs/SPECTRE241/tools.lnx86/cmi/lib/64bit/5.0/libphilips_sh.so ...
Loading /opt/tools/cadence/installs/SPECTRE241/tools.lnx86/cmi/lib/64bit/5.0/libsparam_sh.so ...
Loading /opt/tools/cadence/installs/SPECTRE241/tools.lnx86/cmi/lib/64bit/5.0/libstmodels_sh.so ...

Warning from spectre.
    WARNING (SPECTRE-691): This CPU processor does not support x86 advanced vector extensions instructions. This may affect math operations and slow down the simulation.

Reading file:  /home/davidevi/Desktop/myproject/Sim/VGA/VGA_1_tb/adexl/results/data/MonteCarlo.1/40/xf/groupRunDataDir/netlist/input.scs
Reading file:  /opt/pdk/ams/410/spectre/ams_range.lmts

Warning from spectre during read of parameter soft limits file `/opt/pdk/ams/410/spectre/ams_range.lmts', during circuit read-in.
    WARNING (SPECTRE-8360): line 1511: `ac' is an undefined primitive device.
    WARNING (SPECTRE-8360): line 1512: `ac' is an undefined primitive device.
    WARNING (SPECTRE-8360): line 1513: `ac' is an undefined primitive device.
    WARNING (SPECTRE-8360): line 1514: `ac' is an undefined primitive device.
    WARNING (SPECTRE-8360): line 1515: `ac' is an undefined primitive device.
        Further occurrences of this warning will be suppressed.

Reading file:  /opt/tools/cadence/installs/SPECTRE241/tools.lnx86/spectre/etc/configs/spectre.cfg
Reading file:  /opt/pdk/ams/410/spectre/c35/soac/soac.scs
Reading file:  /opt/pdk/ams/410/spectre/c35/processOption.scs
Reading file:  /opt/pdk/ams/410/spectre/c35/process.scs
Reading file:  /opt/pdk/ams/410/spectre/c35/processOption/C35B4C3.scs
Reading file:  /opt/pdk/ams/410/spectre/c35/cmos53.scs
Reading file:  /opt/pdk/ams/410/spectre/c35/res.scs
Reading file:  /opt/pdk/ams/410/spectre/c35/cap.scs
Reading file:  /opt/pdk/ams/410/spectre/c35/bip.scs
Reading file:  /opt/pdk/ams/410/spectre/c35/ind.scs
Reading file:  /opt/pdk/ams/410/spectre/c35/esddiode.scs
Time for NDB Parsing: CPU = 146.242 ms, elapsed = 247.673 ms.
Time accumulated: CPU = 310.91 ms, elapsed = 247.679 ms.
Peak resident memory used = 169 Mbytes.

Reading link:  /opt/tools/cadence/installs/SPECTRE241/tools.lnx86/spectre/etc/ahdl/discipline.h
Reading file:  /opt/tools/cadence/installs/SPECTRE241/tools.lnx86/spectre/etc/ahdl/disciplines.vams
Reading link:  /opt/tools/cadence/installs/SPECTRE241/tools.lnx86/spectre/etc/ahdl/constants.h
Reading file:  /opt/tools/cadence/installs/SPECTRE241/tools.lnx86/spectre/etc/ahdl/constants.vams

Warning from spectre during AHDL read-in.
    WARNING (VACOMP-2435): The environment variable CDS_AHDLCMI_ENABLE is no longer supported. Therefore, the simulator will use the default compiled C code flow.

Existing shared object for module bsource_19b458 is up to date.
Installed compiled interface for bsource_19b458.
Time for Elaboration: CPU = 47.861 ms, elapsed = 50.0419 ms.
Time accumulated: CPU = 358.929 ms, elapsed = 297.878 ms.
Peak resident memory used = 185 Mbytes.


Notice from spectre during hierarchy flattening.
    The value 'psf' specified for the 'checklimitdest' option will no longer be supported in future releases. Use 'spectre -h' to see other recommended values for the 'checklimitdest' option.


*****************************************************************************************
* 
* INFO: AMS_processOption = C35B4C3
* 
* INFO: Valid Modules  PIP VG5 HIRES
* 
*****************************************************************************************


Time for EDB Visiting: CPU = 5.407 ms, elapsed = 5.40709 ms.
Time accumulated: CPU = 364.448 ms, elapsed = 303.396 ms.
Peak resident memory used = 188 Mbytes.

Loading /opt/tools/cadence/installs/SPECTRE241/tools.lnx86/mdl/lib/64bit/libSpectreEH_sh.so ...

Warning from spectre during initial setup.
    WARNING (SPECTRE-17607): Assert `SOAC_rpolyh_vminuspsub' is ignored because it contains an expression which is invalid or not supported by native evaluator. 
    WARNING (SPECTRE-17607): Assert `SOAC_rpolyh_vpluspsub' is ignored because it contains an expression which is invalid or not supported by native evaluator. 
    WARNING (SPECTRE-16460): SOAC_cvarm_vspsub:Specified subcircuit master `cvarm' was not found.
    WARNING (SPECTRE-16462): SOAC_cvarm_vspsub:Error in specification of subcircuit master. Assert is ignored.
    WARNING (SPECTRE-16460): SOAC_cvarm_vbs:Specified subcircuit master `cvarm' was not found.
    WARNING (SPECTRE-16462): SOAC_cvarm_vbs:Error in specification of subcircuit master. Assert is ignored.
    WARNING (SPECTRE-16460): SOAC_cvarm_vgb:Specified subcircuit master `cvarm' was not found.
    WARNING (SPECTRE-16462): SOAC_cvarm_vgb:Error in specification of subcircuit master. Assert is ignored.
    WARNING (SPECTRE-16460): SOAC_cvart_vspsub:Specified subcircuit master `cvart' was not found.
    WARNING (SPECTRE-16462): SOAC_cvart_vspsub:Error in specification of subcircuit master. Assert is ignored.
    WARNING (SPECTRE-16460): SOAC_cvart_vbs:Specified subcircuit master `cvart' was not found.
        Further occurrences of this warning will be suppressed.
    WARNING (SPECTRE-16462): SOAC_cvart_vbs:Error in specification of subcircuit master. Assert is ignored.
        Further occurrences of this warning will be suppressed.
    WARNING (SPECTRE-17607): Assert `SOAC_cpoly_vminuspsub' is ignored because it contains an expression which is invalid or not supported by native evaluator. 
    WARNING (SPECTRE-17607): Assert `SOAC_cpoly_vpluspsub' is ignored because it contains an expression which is invalid or not supported by native evaluator. 
    WARNING (SPECTRE-17607): Assert `SOAC_modp_vbpsub' is ignored because it contains an expression which is invalid or not supported by native evaluator. 
        Further occurrences of this warning will be suppressed.
Notice from spectre during initial setup.
    Multithreading is disabled due to the size of the design being too small.


Netlist title:
        // Point Netlist Generated on: Apr 16 08:24:17 2026


Global user options:
         psfversion = 1.4.0
            vabstol = 1e-06
            iabstol = 1e-12
               temp = 27
           homotopy = 5
              limit = delta
         compatible = spice2
               gmin = 1e-12
             rforce = 1
           maxnotes = 5
           maxwarns = 5
             digits = 5
               cols = 80
             pivrel = 0.001
           sensfile = ../psf/sens.output
     checklimitdest = psf
     enable_pre_ver = yes
      ignorezerovar = yes
               save = allpub
             reltol = 0.0001
               tnom = 27
             scalem = 1
              scale = 1

Scoped user options:

Circuit inventory:
              nodes 34
            bsim3v3 35    
     bsource_19b458 2     
          capacitor 38    
            isource 1     
           resistor 1     
            vsource 8     

Analysis and control statement inventory:
               info 6     
         montecarlo 1     
                 xf 1     

Output statements:
             .probe 0     
           .measure 0     
               save 0     

Design checks inventory:
          paramtest 55    
             assert 175   


Notice from spectre during initial setup.
    APS enabled.
    73 warnings suppressed.

Time for parsing: CPU = 18.108 ms, elapsed = 556.373 ms.
Time accumulated: CPU = 382.645 ms, elapsed = 859.86 ms.
Peak resident memory used = 193 Mbytes.

~~~~~~~~~~~~~~~~~~~~~~
Pre-Simulation Summary
~~~~~~~~~~~~~~~~~~~~~~
   -   (APS) Multi-threading. The recommended number of threads is 1, consider adding +mt=1 on command line.
~~~~~~~~~~~~~~~~~~~~~~

**************************************************
Monte Carlo Analysis `mc1': iteration = (40 -> 50)
**************************************************
Important parameter values:
    seed = 12345
    sampling = lds
    variations = all
    firstrun = 40
    numruns = 11
    nullmfactorcorrelation = no
    donominal = no
    method = standard
Opening iteration number and data-directory mapping file:  /home/davidevi/Desktop/myproject/Sim/VGA/VGA_1_tb/adexl/results/data/MonteCarlo.1/40/xf/groupRunDataDir/netlist/../psf/mc1.mapping

Statistical parameters:
    Defined process parameters: 629
    Defined mismatch parameters (subckt based): 86
    Non-referenced mismatch parameters: 84
    Number of random variables: 648
    Gaussian truncation for process parameters: 4.00 sigma
    Gaussian truncation for mismatch parameters: 4.00 sigma


**** Skipping runs 1 to 39 for `mc1'


Opening the PSF file ../psf/mc1_xf.montecarlo ...

Opening the PSF file ../psf/mc1_modelParameter.montecarlo ...

Opening the PSF file ../psf/mc1_element.montecarlo ...

Opening the PSF file ../psf/mc1_outputParameter.montecarlo ...

Opening the PSF file ../psf/mc1_designParamVals.montecarlo ...

Opening the PSF file ../psf/mc1_primitives.montecarlo ...

Opening the PSF file ../psf/mc1_subckts.montecarlo ...

**** Performing monte carlo loop for `mc1'

40   0.00% 

*****************************************************************************************
* 
* INFO: AMS_processOption = C35B4C3
* 
* INFO: Valid Modules  PIP VG5 HIRES
* 
*****************************************************************************************


***********************************************************
Transfer Function Analysis `xf': freq = (10 mHz -> 100 MHz)
***********************************************************

Opening the PSF file ../psf/mc1_separate/040/xf.xf ...

Notice from spectre at freq = 0 Hz during DC analysis, during XF analysis `xf', during Monte Carlo analysis `mc1'.
    No checklimit analysis defined for asserts. A default checklimit analysis 'SpectreChecklimitAnal' has been created with all asserts enabled.
Notice from spectre at freq = 0 Hz during DC analysis, during XF analysis `xf', during Monte Carlo analysis `mc1'.
    Bad pivoting is found during DC analysis. Option dc_pivot_check=yes is recommended for possible improvement of convergence.
Warning from spectre at freq = 0 Hz during check, during DC analysis, during XF analysis `xf', during Monte Carlo analysis `mc1'.
    WARNING (CMI-2943): Parameter checks have been ignored because the valid value for parameter 'trise' could not be found in 'C1'.
    WARNING (CMI-2943): Parameter checks have been ignored because the valid value for parameter 'trise' could not be found in 'I0.R2.CM'.
    WARNING (CMI-2943): Parameter checks have been ignored because the valid value for parameter 'trise' could not be found in 'I0.R2.CS1'.
    WARNING (CMI-2943): Parameter checks have been ignored because the valid value for parameter 'trise' could not be found in 'I0.R2.CS0'.
    WARNING (CMI-2943): Parameter checks have been ignored because the valid value for parameter 'trise' could not be found in 'I0.C3.C1'.
        Further occurrences of this warning will be suppressed.

Convergence achieved in 17 iterations.
DC simulation time: CPU = 2.19 ms, elapsed = 2.19083 ms.
    xf: freq = 25.12 mHz      (4 %), step = 9.27 mHz        (2 %)
    xf: freq = 39.81 mHz      (6 %), step = 14.69 mHz       (2 %)
    xf: freq = 63.1 mHz       (8 %), step = 23.29 mHz       (2 %)
    xf: freq = 100 mHz       (10 %), step = 36.9 mHz        (2 %)
    xf: freq = 158.5 mHz     (12 %), step = 58.49 mHz       (2 %)
    xf: freq = 251.2 mHz     (14 %), step = 92.7 mHz        (2 %)
    xf: freq = 398.1 mHz     (16 %), step = 146.9 mHz       (2 %)
    xf: freq = 631 mHz       (18 %), step = 232.9 mHz       (2 %)
    xf: freq = 1 Hz          (20 %), step = 369 mHz         (2 %)
    xf: freq = 1.585 Hz      (22 %), step = 584.9 mHz       (2 %)
    xf: freq = 2.512 Hz      (24 %), step = 927 mHz         (2 %)
    xf: freq = 3.981 Hz      (26 %), step = 1.469 Hz        (2 %)
    xf: freq = 6.31 Hz       (28 %), step = 2.329 Hz        (2 %)
    xf: freq = 10 Hz         (30 %), step = 3.69 Hz         (2 %)
    xf: freq = 15.85 Hz      (32 %), step = 5.849 Hz        (2 %)
    xf: freq = 25.12 Hz      (34 %), step = 9.27 Hz         (2 %)
    xf: freq = 39.81 Hz      (36 %), step = 14.69 Hz        (2 %)
    xf: freq = 63.1 Hz       (38 %), step = 23.29 Hz        (2 %)
    xf: freq = 100 Hz        (40 %), step = 36.9 Hz         (2 %)
    xf: freq = 158.5 Hz      (42 %), step = 58.49 Hz        (2 %)
    xf: freq = 251.2 Hz      (44 %), step = 92.7 Hz         (2 %)
    xf: freq = 398.1 Hz      (46 %), step = 146.9 Hz        (2 %)
    xf: freq = 631 Hz        (48 %), step = 232.9 Hz        (2 %)
    xf: freq = 1 kHz         (50 %), step = 369 Hz          (2 %)
    xf: freq = 1.585 kHz     (52 %), step = 584.9 Hz        (2 %)
    xf: freq = 2.512 kHz     (54 %), step = 927 Hz          (2 %)
    xf: freq = 3.981 kHz     (56 %), step = 1.469 kHz       (2 %)
    xf: freq = 6.31 kHz      (58 %), step = 2.329 kHz       (2 %)
    xf: freq = 10 kHz        (60 %), step = 3.69 kHz        (2 %)
    xf: freq = 15.85 kHz     (62 %), step = 5.849 kHz       (2 %)
    xf: freq = 25.12 kHz     (64 %), step = 9.27 kHz        (2 %)
    xf: freq = 39.81 kHz     (66 %), step = 14.69 kHz       (2 %)
    xf: freq = 63.1 kHz      (68 %), step = 23.29 kHz       (2 %)
    xf: freq = 100 kHz       (70 %), step = 36.9 kHz        (2 %)
    xf: freq = 158.5 kHz     (72 %), step = 58.49 kHz       (2 %)
    xf: freq = 251.2 kHz     (74 %), step = 92.7 kHz        (2 %)
    xf: freq = 398.1 kHz     (76 %), step = 146.9 kHz       (2 %)
    xf: freq = 631 kHz       (78 %), step = 232.9 kHz       (2 %)
    xf: freq = 1 MHz         (80 %), step = 369 kHz         (2 %)
    xf: freq = 1.585 MHz     (82 %), step = 584.9 kHz       (2 %)
    xf: freq = 2.512 MHz     (84 %), step = 927 kHz         (2 %)
    xf: freq = 3.981 MHz     (86 %), step = 1.469 MHz       (2 %)
    xf: freq = 6.31 MHz      (88 %), step = 2.329 MHz       (2 %)
    xf: freq = 10 MHz        (90 %), step = 3.69 MHz        (2 %)
    xf: freq = 15.85 MHz     (92 %), step = 5.849 MHz       (2 %)
    xf: freq = 25.12 MHz     (94 %), step = 9.27 MHz        (2 %)
    xf: freq = 39.81 MHz     (96 %), step = 14.69 MHz       (2 %)
    xf: freq = 63.1 MHz      (98 %), step = 23.29 MHz       (2 %)
    xf: freq = 100 MHz      (100 %), step = 36.9 MHz        (2 %)
Accumulated DC solution time =            953.674 ns.
Intrinsic xf analysis time =              7.88307 ms.
Total time required for xf analysis `xf': CPU = 7.919 ms, elapsed = 8.63886 ms, util. = 91.7%.
Time accumulated: CPU = 447.744 ms, elapsed = 931.287 ms.
Peak resident memory used = 202 Mbytes.


Notice from spectre during XF analysis `xf', during Monte Carlo analysis `mc1'.
    34 warnings suppressed.

modelParameter: writing model parameter values to rawfile.

Opening the PSF file ../psf/mc1_separate/040/modelParameter.info ...
element: writing instance parameter values to rawfile.

Opening the PSF file ../psf/mc1_separate/040/element.info ...
outputParameter: writing output parameter values to rawfile.

Opening the PSF file ../psf/mc1_separate/040/outputParameter.info ...
designParamVals: writing netlist parameters to rawfile.

Opening the PSFASCII file ../psf/mc1_separate/040/designParamVals.info ...
primitives: writing primitives to rawfile.

Opening the PSFASCII file ../psf/mc1_separate/040/primitives.info.primitives ...
subckts: writing subcircuits to rawfile.

Opening the PSFASCII file ../psf/mc1_separate/040/subckts.info.subckts ...
41  10.00% 

*****************************************************************************************
* 
* INFO: AMS_processOption = C35B4C3
* 
* INFO: Valid Modules  PIP VG5 HIRES
* 
*****************************************************************************************


***********************************************************
Transfer Function Analysis `xf': freq = (10 mHz -> 100 MHz)
***********************************************************

Opening the PSF file ../psf/mc1_separate/041/xf.xf ...

Notice from spectre at freq = 0 Hz during DC analysis, during XF analysis `xf', during Monte Carlo analysis `mc1'.
    Bad pivoting is found during DC analysis. Option dc_pivot_check=yes is recommended for possible improvement of convergence.
Warning from spectre at freq = 0 Hz during check, during DC analysis, during XF analysis `xf', during Monte Carlo analysis `mc1'.
    WARNING (CMI-2943): Parameter checks have been ignored because the valid value for parameter 'trise' could not be found in 'C1'.
    WARNING (CMI-2943): Parameter checks have been ignored because the valid value for parameter 'trise' could not be found in 'I0.R2.CM'.
    WARNING (CMI-2943): Parameter checks have been ignored because the valid value for parameter 'trise' could not be found in 'I0.R2.CS1'.
    WARNING (CMI-2943): Parameter checks have been ignored because the valid value for parameter 'trise' could not be found in 'I0.R2.CS0'.
    WARNING (CMI-2943): Parameter checks have been ignored because the valid value for parameter 'trise' could not be found in 'I0.C3.C1'.
        Further occurrences of this warning will be suppressed.

Convergence achieved in 17 iterations.
DC simulation time: CPU = 1.809 ms, elapsed = 1.81007 ms.
    xf: freq = 25.12 mHz      (4 %), step = 9.27 mHz        (2 %)
    xf: freq = 39.81 mHz      (6 %), step = 14.69 mHz       (2 %)
    xf: freq = 63.1 mHz       (8 %), step = 23.29 mHz       (2 %)
    xf: freq = 100 mHz       (10 %), step = 36.9 mHz        (2 %)
    xf: freq = 158.5 mHz     (12 %), step = 58.49 mHz       (2 %)
    xf: freq = 251.2 mHz     (14 %), step = 92.7 mHz        (2 %)
    xf: freq = 398.1 mHz     (16 %), step = 146.9 mHz       (2 %)
    xf: freq = 631 mHz       (18 %), step = 232.9 mHz       (2 %)
    xf: freq = 1 Hz          (20 %), step = 369 mHz         (2 %)
    xf: freq = 1.585 Hz      (22 %), step = 584.9 mHz       (2 %)
    xf: freq = 2.512 Hz      (24 %), step = 927 mHz         (2 %)
    xf: freq = 3.981 Hz      (26 %), step = 1.469 Hz        (2 %)
    xf: freq = 6.31 Hz       (28 %), step = 2.329 Hz        (2 %)
    xf: freq = 10 Hz         (30 %), step = 3.69 Hz         (2 %)
    xf: freq = 15.85 Hz      (32 %), step = 5.849 Hz        (2 %)
    xf: freq = 25.12 Hz      (34 %), step = 9.27 Hz         (2 %)
    xf: freq = 39.81 Hz      (36 %), step = 14.69 Hz        (2 %)
    xf: freq = 63.1 Hz       (38 %), step = 23.29 Hz        (2 %)
    xf: freq = 100 Hz        (40 %), step = 36.9 Hz         (2 %)
    xf: freq = 158.5 Hz      (42 %), step = 58.49 Hz        (2 %)
    xf: freq = 251.2 Hz      (44 %), step = 92.7 Hz         (2 %)
    xf: freq = 398.1 Hz      (46 %), step = 146.9 Hz        (2 %)
    xf: freq = 631 Hz        (48 %), step = 232.9 Hz        (2 %)
    xf: freq = 1 kHz         (50 %), step = 369 Hz          (2 %)
    xf: freq = 1.585 kHz     (52 %), step = 584.9 Hz        (2 %)
    xf: freq = 2.512 kHz     (54 %), step = 927 Hz          (2 %)
    xf: freq = 3.981 kHz     (56 %), step = 1.469 kHz       (2 %)
    xf: freq = 6.31 kHz      (58 %), step = 2.329 kHz       (2 %)
    xf: freq = 10 kHz        (60 %), step = 3.69 kHz        (2 %)
    xf: freq = 15.85 kHz     (62 %), step = 5.849 kHz       (2 %)
    xf: freq = 25.12 kHz     (64 %), step = 9.27 kHz        (2 %)
    xf: freq = 39.81 kHz     (66 %), step = 14.69 kHz       (2 %)
    xf: freq = 63.1 kHz      (68 %), step = 23.29 kHz       (2 %)
    xf: freq = 100 kHz       (70 %), step = 36.9 kHz        (2 %)
    xf: freq = 158.5 kHz     (72 %), step = 58.49 kHz       (2 %)
    xf: freq = 251.2 kHz     (74 %), step = 92.7 kHz        (2 %)
    xf: freq = 398.1 kHz     (76 %), step = 146.9 kHz       (2 %)
    xf: freq = 631 kHz       (78 %), step = 232.9 kHz       (2 %)
    xf: freq = 1 MHz         (80 %), step = 369 kHz         (2 %)
    xf: freq = 1.585 MHz     (82 %), step = 584.9 kHz       (2 %)
    xf: freq = 2.512 MHz     (84 %), step = 927 kHz         (2 %)
    xf: freq = 3.981 MHz     (86 %), step = 1.469 MHz       (2 %)
    xf: freq = 6.31 MHz      (88 %), step = 2.329 MHz       (2 %)
    xf: freq = 10 MHz        (90 %), step = 3.69 MHz        (2 %)
    xf: freq = 15.85 MHz     (92 %), step = 5.849 MHz       (2 %)
    xf: freq = 25.12 MHz     (94 %), step = 9.27 MHz        (2 %)
    xf: freq = 39.81 MHz     (96 %), step = 14.69 MHz       (2 %)
    xf: freq = 63.1 MHz      (98 %), step = 23.29 MHz       (2 %)
    xf: freq = 100 MHz      (100 %), step = 36.9 MHz        (2 %)
Accumulated DC solution time =            0 s.
Intrinsic xf analysis time =              7.07412 ms.
Total time required for xf analysis `xf': CPU = 6.554 ms, elapsed = 7.2999 ms, util. = 89.8%.
Time accumulated: CPU = 478.806 ms, elapsed = 971.975 ms.
Peak resident memory used = 203 Mbytes.


Notice from spectre during XF analysis `xf', during Monte Carlo analysis `mc1'.
    34 warnings suppressed.

modelParameter: writing model parameter values to rawfile.

Opening the PSF file ../psf/mc1_separate/041/modelParameter.info ...
element: writing instance parameter values to rawfile.

Opening the PSF file ../psf/mc1_separate/041/element.info ...
outputParameter: writing output parameter values to rawfile.

Opening the PSF file ../psf/mc1_separate/041/outputParameter.info ...
designParamVals: writing netlist parameters to rawfile.

Opening the PSFASCII file ../psf/mc1_separate/041/designParamVals.info ...
primitives: writing primitives to rawfile.

Opening the PSFASCII file ../psf/mc1_separate/041/primitives.info.primitives ...
subckts: writing subcircuits to rawfile.

Opening the PSFASCII file ../psf/mc1_separate/041/subckts.info.subckts ...
    mc1: iteration = 41            (10 %), step = 1              (10 %)
42  20.00% 

*****************************************************************************************
* 
* INFO: AMS_processOption = C35B4C3
* 
* INFO: Valid Modules  PIP VG5 HIRES
* 
*****************************************************************************************


***********************************************************
Transfer Function Analysis `xf': freq = (10 mHz -> 100 MHz)
***********************************************************

Opening the PSF file ../psf/mc1_separate/042/xf.xf ...

Notice from spectre at freq = 0 Hz during DC analysis, during XF analysis `xf', during Monte Carlo analysis `mc1'.
    Bad pivoting is found during DC analysis. Option dc_pivot_check=yes is recommended for possible improvement of convergence.
Warning from spectre at freq = 0 Hz during check, during DC analysis, during XF analysis `xf', during Monte Carlo analysis `mc1'.
    WARNING (CMI-2943): Parameter checks have been ignored because the valid value for parameter 'trise' could not be found in 'C1'.
    WARNING (CMI-2943): Parameter checks have been ignored because the valid value for parameter 'trise' could not be found in 'I0.R2.CM'.
    WARNING (CMI-2943): Parameter checks have been ignored because the valid value for parameter 'trise' could not be found in 'I0.R2.CS1'.
    WARNING (CMI-2943): Parameter checks have been ignored because the valid value for parameter 'trise' could not be found in 'I0.R2.CS0'.
    WARNING (CMI-2943): Parameter checks have been ignored because the valid value for parameter 'trise' could not be found in 'I0.C3.C1'.
        Further occurrences of this warning will be suppressed.

Convergence achieved in 17 iterations.
DC simulation time: CPU = 1.674 ms, elapsed = 1.67894 ms.
    xf: freq = 25.12 mHz      (4 %), step = 9.27 mHz        (2 %)
    xf: freq = 39.81 mHz      (6 %), step = 14.69 mHz       (2 %)
    xf: freq = 63.1 mHz       (8 %), step = 23.29 mHz       (2 %)
    xf: freq = 100 mHz       (10 %), step = 36.9 mHz        (2 %)
    xf: freq = 158.5 mHz     (12 %), step = 58.49 mHz       (2 %)
    xf: freq = 251.2 mHz     (14 %), step = 92.7 mHz        (2 %)
    xf: freq = 398.1 mHz     (16 %), step = 146.9 mHz       (2 %)
    xf: freq = 631 mHz       (18 %), step = 232.9 mHz       (2 %)
    xf: freq = 1 Hz          (20 %), step = 369 mHz         (2 %)
    xf: freq = 1.585 Hz      (22 %), step = 584.9 mHz       (2 %)
    xf: freq = 2.512 Hz      (24 %), step = 927 mHz         (2 %)
    xf: freq = 3.981 Hz      (26 %), step = 1.469 Hz        (2 %)
    xf: freq = 6.31 Hz       (28 %), step = 2.329 Hz        (2 %)
    xf: freq = 10 Hz         (30 %), step = 3.69 Hz         (2 %)
    xf: freq = 15.85 Hz      (32 %), step = 5.849 Hz        (2 %)
    xf: freq = 25.12 Hz      (34 %), step = 9.27 Hz         (2 %)
    xf: freq = 39.81 Hz      (36 %), step = 14.69 Hz        (2 %)
    xf: freq = 63.1 Hz       (38 %), step = 23.29 Hz        (2 %)
    xf: freq = 100 Hz        (40 %), step = 36.9 Hz         (2 %)
    xf: freq = 158.5 Hz      (42 %), step = 58.49 Hz        (2 %)
    xf: freq = 251.2 Hz      (44 %), step = 92.7 Hz         (2 %)
    xf: freq = 398.1 Hz      (46 %), step = 146.9 Hz        (2 %)
    xf: freq = 631 Hz        (48 %), step = 232.9 Hz        (2 %)
    xf: freq = 1 kHz         (50 %), step = 369 Hz          (2 %)
    xf: freq = 1.585 kHz     (52 %), step = 584.9 Hz        (2 %)
    xf: freq = 2.512 kHz     (54 %), step = 927 Hz          (2 %)
    xf: freq = 3.981 kHz     (56 %), step = 1.469 kHz       (2 %)
    xf: freq = 6.31 kHz      (58 %), step = 2.329 kHz       (2 %)
    xf: freq = 10 kHz        (60 %), step = 3.69 kHz        (2 %)
    xf: freq = 15.85 kHz     (62 %), step = 5.849 kHz       (2 %)
    xf: freq = 25.12 kHz     (64 %), step = 9.27 kHz        (2 %)
    xf: freq = 39.81 kHz     (66 %), step = 14.69 kHz       (2 %)
    xf: freq = 63.1 kHz      (68 %), step = 23.29 kHz       (2 %)
    xf: freq = 100 kHz       (70 %), step = 36.9 kHz        (2 %)
    xf: freq = 158.5 kHz     (72 %), step = 58.49 kHz       (2 %)
    xf: freq = 251.2 kHz     (74 %), step = 92.7 kHz        (2 %)
    xf: freq = 398.1 kHz     (76 %), step = 146.9 kHz       (2 %)
    xf: freq = 631 kHz       (78 %), step = 232.9 kHz       (2 %)
    xf: freq = 1 MHz         (80 %), step = 369 kHz         (2 %)
    xf: freq = 1.585 MHz     (82 %), step = 584.9 kHz       (2 %)
    xf: freq = 2.512 MHz     (84 %), step = 927 kHz         (2 %)
    xf: freq = 3.981 MHz     (86 %), step = 1.469 MHz       (2 %)
    xf: freq = 6.31 MHz      (88 %), step = 2.329 MHz       (2 %)
    xf: freq = 10 MHz        (90 %), step = 3.69 MHz        (2 %)
    xf: freq = 15.85 MHz     (92 %), step = 5.849 MHz       (2 %)
    xf: freq = 25.12 MHz     (94 %), step = 9.27 MHz        (2 %)
    xf: freq = 39.81 MHz     (96 %), step = 14.69 MHz       (2 %)
    xf: freq = 63.1 MHz      (98 %), step = 23.29 MHz       (2 %)
    xf: freq = 100 MHz      (100 %), step = 36.9 MHz        (2 %)
Accumulated DC solution time =            1.19209 us.
Intrinsic xf analysis time =              7.20191 ms.
Total time required for xf analysis `xf': CPU = 6.304 ms, elapsed = 7.34711 ms, util. = 85.8%.
Time accumulated: CPU = 506.981 ms, elapsed = 1.01054 s.
Peak resident memory used = 203 Mbytes.


Notice from spectre during XF analysis `xf', during Monte Carlo analysis `mc1'.
    34 warnings suppressed.

modelParameter: writing model parameter values to rawfile.

Opening the PSF file ../psf/mc1_separate/042/modelParameter.info ...
element: writing instance parameter values to rawfile.

Opening the PSF file ../psf/mc1_separate/042/element.info ...
outputParameter: writing output parameter values to rawfile.

Opening the PSF file ../psf/mc1_separate/042/outputParameter.info ...
designParamVals: writing netlist parameters to rawfile.

Opening the PSFASCII file ../psf/mc1_separate/042/designParamVals.info ...
primitives: writing primitives to rawfile.

Opening the PSFASCII file ../psf/mc1_separate/042/primitives.info.primitives ...
subckts: writing subcircuits to rawfile.

Opening the PSFASCII file ../psf/mc1_separate/042/subckts.info.subckts ...
    mc1: iteration = 42            (20 %), step = 1              (10 %)
43  30.00% 

*****************************************************************************************
* 
* INFO: AMS_processOption = C35B4C3
* 
* INFO: Valid Modules  PIP VG5 HIRES
* 
*****************************************************************************************


***********************************************************
Transfer Function Analysis `xf': freq = (10 mHz -> 100 MHz)
***********************************************************

Opening the PSF file ../psf/mc1_separate/043/xf.xf ...

Notice from spectre at freq = 0 Hz during DC analysis, during XF analysis `xf', during Monte Carlo analysis `mc1'.
    Bad pivoting is found during DC analysis. Option dc_pivot_check=yes is recommended for possible improvement of convergence.
Warning from spectre at freq = 0 Hz during check, during DC analysis, during XF analysis `xf', during Monte Carlo analysis `mc1'.
    WARNING (CMI-2943): Parameter checks have been ignored because the valid value for parameter 'trise' could not be found in 'C1'.
    WARNING (CMI-2943): Parameter checks have been ignored because the valid value for parameter 'trise' could not be found in 'I0.R2.CM'.
    WARNING (CMI-2943): Parameter checks have been ignored because the valid value for parameter 'trise' could not be found in 'I0.R2.CS1'.
    WARNING (CMI-2943): Parameter checks have been ignored because the valid value for parameter 'trise' could not be found in 'I0.R2.CS0'.
    WARNING (CMI-2943): Parameter checks have been ignored because the valid value for parameter 'trise' could not be found in 'I0.C3.C1'.
        Further occurrences of this warning will be suppressed.

Convergence achieved in 17 iterations.
DC simulation time: CPU = 1.6 ms, elapsed = 1.62196 ms.
    xf: freq = 25.12 mHz      (4 %), step = 9.27 mHz        (2 %)
    xf: freq = 39.81 mHz      (6 %), step = 14.69 mHz       (2 %)
    xf: freq = 63.1 mHz       (8 %), step = 23.29 mHz       (2 %)
    xf: freq = 100 mHz       (10 %), step = 36.9 mHz        (2 %)
    xf: freq = 158.5 mHz     (12 %), step = 58.49 mHz       (2 %)
    xf: freq = 251.2 mHz     (14 %), step = 92.7 mHz        (2 %)
    xf: freq = 398.1 mHz     (16 %), step = 146.9 mHz       (2 %)
    xf: freq = 631 mHz       (18 %), step = 232.9 mHz       (2 %)
    xf: freq = 1 Hz          (20 %), step = 369 mHz         (2 %)
    xf: freq = 1.585 Hz      (22 %), step = 584.9 mHz       (2 %)
    xf: freq = 2.512 Hz      (24 %), step = 927 mHz         (2 %)
    xf: freq = 3.981 Hz      (26 %), step = 1.469 Hz        (2 %)
    xf: freq = 6.31 Hz       (28 %), step = 2.329 Hz        (2 %)
    xf: freq = 10 Hz         (30 %), step = 3.69 Hz         (2 %)
    xf: freq = 15.85 Hz      (32 %), step = 5.849 Hz        (2 %)
    xf: freq = 25.12 Hz      (34 %), step = 9.27 Hz         (2 %)
    xf: freq = 39.81 Hz      (36 %), step = 14.69 Hz        (2 %)
    xf: freq = 63.1 Hz       (38 %), step = 23.29 Hz        (2 %)
    xf: freq = 100 Hz        (40 %), step = 36.9 Hz         (2 %)
    xf: freq = 158.5 Hz      (42 %), step = 58.49 Hz        (2 %)
    xf: freq = 251.2 Hz      (44 %), step = 92.7 Hz         (2 %)
    xf: freq = 398.1 Hz      (46 %), step = 146.9 Hz        (2 %)
    xf: freq = 631 Hz        (48 %), step = 232.9 Hz        (2 %)
    xf: freq = 1 kHz         (50 %), step = 369 Hz          (2 %)
    xf: freq = 1.585 kHz     (52 %), step = 584.9 Hz        (2 %)
    xf: freq = 2.512 kHz     (54 %), step = 927 Hz          (2 %)
    xf: freq = 3.981 kHz     (56 %), step = 1.469 kHz       (2 %)
    xf: freq = 6.31 kHz      (58 %), step = 2.329 kHz       (2 %)
    xf: freq = 10 kHz        (60 %), step = 3.69 kHz        (2 %)
    xf: freq = 15.85 kHz     (62 %), step = 5.849 kHz       (2 %)
    xf: freq = 25.12 kHz     (64 %), step = 9.27 kHz        (2 %)
    xf: freq = 39.81 kHz     (66 %), step = 14.69 kHz       (2 %)
    xf: freq = 63.1 kHz      (68 %), step = 23.29 kHz       (2 %)
    xf: freq = 100 kHz       (70 %), step = 36.9 kHz        (2 %)
    xf: freq = 158.5 kHz     (72 %), step = 58.49 kHz       (2 %)
    xf: freq = 251.2 kHz     (74 %), step = 92.7 kHz        (2 %)
    xf: freq = 398.1 kHz     (76 %), step = 146.9 kHz       (2 %)
    xf: freq = 631 kHz       (78 %), step = 232.9 kHz       (2 %)
    xf: freq = 1 MHz         (80 %), step = 369 kHz         (2 %)
    xf: freq = 1.585 MHz     (82 %), step = 584.9 kHz       (2 %)
    xf: freq = 2.512 MHz     (84 %), step = 927 kHz         (2 %)
    xf: freq = 3.981 MHz     (86 %), step = 1.469 MHz       (2 %)
    xf: freq = 6.31 MHz      (88 %), step = 2.329 MHz       (2 %)
    xf: freq = 10 MHz        (90 %), step = 3.69 MHz        (2 %)
    xf: freq = 15.85 MHz     (92 %), step = 5.849 MHz       (2 %)
    xf: freq = 25.12 MHz     (94 %), step = 9.27 MHz        (2 %)
    xf: freq = 39.81 MHz     (96 %), step = 14.69 MHz       (2 %)
    xf: freq = 63.1 MHz      (98 %), step = 23.29 MHz       (2 %)
    xf: freq = 100 MHz      (100 %), step = 36.9 MHz        (2 %)
Accumulated DC solution time =            0 s.
Intrinsic xf analysis time =              7.13992 ms.
Total time required for xf analysis `xf': CPU = 6.411 ms, elapsed = 7.29489 ms, util. = 87.9%.
Time accumulated: CPU = 535.41 ms, elapsed = 1.04928 s.
Peak resident memory used = 203 Mbytes.


Notice from spectre during XF analysis `xf', during Monte Carlo analysis `mc1'.
    34 warnings suppressed.

modelParameter: writing model parameter values to rawfile.

Opening the PSF file ../psf/mc1_separate/043/modelParameter.info ...
element: writing instance parameter values to rawfile.

Opening the PSF file ../psf/mc1_separate/043/element.info ...
outputParameter: writing output parameter values to rawfile.

Opening the PSF file ../psf/mc1_separate/043/outputParameter.info ...
designParamVals: writing netlist parameters to rawfile.

Opening the PSFASCII file ../psf/mc1_separate/043/designParamVals.info ...
primitives: writing primitives to rawfile.

Opening the PSFASCII file ../psf/mc1_separate/043/primitives.info.primitives ...
subckts: writing subcircuits to rawfile.

Opening the PSFASCII file ../psf/mc1_separate/043/subckts.info.subckts ...
    mc1: iteration = 43            (30 %), step = 1              (10 %)
44  40.00% 

*****************************************************************************************
* 
* INFO: AMS_processOption = C35B4C3
* 
* INFO: Valid Modules  PIP VG5 HIRES
* 
*****************************************************************************************


***********************************************************
Transfer Function Analysis `xf': freq = (10 mHz -> 100 MHz)
***********************************************************

Opening the PSF file ../psf/mc1_separate/044/xf.xf ...

Notice from spectre at freq = 0 Hz during DC analysis, during XF analysis `xf', during Monte Carlo analysis `mc1'.
    Bad pivoting is found during DC analysis. Option dc_pivot_check=yes is recommended for possible improvement of convergence.
Warning from spectre at freq = 0 Hz during check, during DC analysis, during XF analysis `xf', during Monte Carlo analysis `mc1'.
    WARNING (CMI-2943): Parameter checks have been ignored because the valid value for parameter 'trise' could not be found in 'C1'.
    WARNING (CMI-2943): Parameter checks have been ignored because the valid value for parameter 'trise' could not be found in 'I0.R2.CM'.
    WARNING (CMI-2943): Parameter checks have been ignored because the valid value for parameter 'trise' could not be found in 'I0.R2.CS1'.
    WARNING (CMI-2943): Parameter checks have been ignored because the valid value for parameter 'trise' could not be found in 'I0.R2.CS0'.
    WARNING (CMI-2943): Parameter checks have been ignored because the valid value for parameter 'trise' could not be found in 'I0.C3.C1'.
        Further occurrences of this warning will be suppressed.

Convergence achieved in 17 iterations.
DC simulation time: CPU = 1.652 ms, elapsed = 1.65081 ms.
    xf: freq = 25.12 mHz      (4 %), step = 9.27 mHz        (2 %)
    xf: freq = 39.81 mHz      (6 %), step = 14.69 mHz       (2 %)
    xf: freq = 63.1 mHz       (8 %), step = 23.29 mHz       (2 %)
    xf: freq = 100 mHz       (10 %), step = 36.9 mHz        (2 %)
    xf: freq = 158.5 mHz     (12 %), step = 58.49 mHz       (2 %)
    xf: freq = 251.2 mHz     (14 %), step = 92.7 mHz        (2 %)
    xf: freq = 398.1 mHz     (16 %), step = 146.9 mHz       (2 %)
    xf: freq = 631 mHz       (18 %), step = 232.9 mHz       (2 %)
    xf: freq = 1 Hz          (20 %), step = 369 mHz         (2 %)
    xf: freq = 1.585 Hz      (22 %), step = 584.9 mHz       (2 %)
    xf: freq = 2.512 Hz      (24 %), step = 927 mHz         (2 %)
    xf: freq = 3.981 Hz      (26 %), step = 1.469 Hz        (2 %)
    xf: freq = 6.31 Hz       (28 %), step = 2.329 Hz        (2 %)
    xf: freq = 10 Hz         (30 %), step = 3.69 Hz         (2 %)
    xf: freq = 15.85 Hz      (32 %), step = 5.849 Hz        (2 %)
    xf: freq = 25.12 Hz      (34 %), step = 9.27 Hz         (2 %)
    xf: freq = 39.81 Hz      (36 %), step = 14.69 Hz        (2 %)
    xf: freq = 63.1 Hz       (38 %), step = 23.29 Hz        (2 %)
    xf: freq = 100 Hz        (40 %), step = 36.9 Hz         (2 %)
    xf: freq = 158.5 Hz      (42 %), step = 58.49 Hz        (2 %)
    xf: freq = 251.2 Hz      (44 %), step = 92.7 Hz         (2 %)
    xf: freq = 398.1 Hz      (46 %), step = 146.9 Hz        (2 %)
    xf: freq = 631 Hz        (48 %), step = 232.9 Hz        (2 %)
    xf: freq = 1 kHz         (50 %), step = 369 Hz          (2 %)
    xf: freq = 1.585 kHz     (52 %), step = 584.9 Hz        (2 %)
    xf: freq = 2.512 kHz     (54 %), step = 927 Hz          (2 %)
    xf: freq = 3.981 kHz     (56 %), step = 1.469 kHz       (2 %)
    xf: freq = 6.31 kHz      (58 %), step = 2.329 kHz       (2 %)
    xf: freq = 10 kHz        (60 %), step = 3.69 kHz        (2 %)
    xf: freq = 15.85 kHz     (62 %), step = 5.849 kHz       (2 %)
    xf: freq = 25.12 kHz     (64 %), step = 9.27 kHz        (2 %)
    xf: freq = 39.81 kHz     (66 %), step = 14.69 kHz       (2 %)
    xf: freq = 63.1 kHz      (68 %), step = 23.29 kHz       (2 %)
    xf: freq = 100 kHz       (70 %), step = 36.9 kHz        (2 %)
    xf: freq = 158.5 kHz     (72 %), step = 58.49 kHz       (2 %)
    xf: freq = 251.2 kHz     (74 %), step = 92.7 kHz        (2 %)
    xf: freq = 398.1 kHz     (76 %), step = 146.9 kHz       (2 %)
    xf: freq = 631 kHz       (78 %), step = 232.9 kHz       (2 %)
    xf: freq = 1 MHz         (80 %), step = 369 kHz         (2 %)
    xf: freq = 1.585 MHz     (82 %), step = 584.9 kHz       (2 %)
    xf: freq = 2.512 MHz     (84 %), step = 927 kHz         (2 %)
    xf: freq = 3.981 MHz     (86 %), step = 1.469 MHz       (2 %)
    xf: freq = 6.31 MHz      (88 %), step = 2.329 MHz       (2 %)
    xf: freq = 10 MHz        (90 %), step = 3.69 MHz        (2 %)
    xf: freq = 15.85 MHz     (92 %), step = 5.849 MHz       (2 %)
    xf: freq = 25.12 MHz     (94 %), step = 9.27 MHz        (2 %)
    xf: freq = 39.81 MHz     (96 %), step = 14.69 MHz       (2 %)
    xf: freq = 63.1 MHz      (98 %), step = 23.29 MHz       (2 %)
    xf: freq = 100 MHz      (100 %), step = 36.9 MHz        (2 %)
Accumulated DC solution time =            0 s.
Intrinsic xf analysis time =              7.03406 ms.
Total time required for xf analysis `xf': CPU = 6.377 ms, elapsed = 7.16805 ms, util. = 89%.
Time accumulated: CPU = 564.471 ms, elapsed = 1.08879 s.
Peak resident memory used = 203 Mbytes.


Notice from spectre during XF analysis `xf', during Monte Carlo analysis `mc1'.
    34 warnings suppressed.

modelParameter: writing model parameter values to rawfile.

Opening the PSF file ../psf/mc1_separate/044/modelParameter.info ...
element: writing instance parameter values to rawfile.

Opening the PSF file ../psf/mc1_separate/044/element.info ...
outputParameter: writing output parameter values to rawfile.

Opening the PSF file ../psf/mc1_separate/044/outputParameter.info ...
designParamVals: writing netlist parameters to rawfile.

Opening the PSFASCII file ../psf/mc1_separate/044/designParamVals.info ...
primitives: writing primitives to rawfile.

Opening the PSFASCII file ../psf/mc1_separate/044/primitives.info.primitives ...
subckts: writing subcircuits to rawfile.

Opening the PSFASCII file ../psf/mc1_separate/044/subckts.info.subckts ...
    mc1: iteration = 44            (40 %), step = 1              (10 %)
45  50.00% 

*****************************************************************************************
* 
* INFO: AMS_processOption = C35B4C3
* 
* INFO: Valid Modules  PIP VG5 HIRES
* 
*****************************************************************************************


***********************************************************
Transfer Function Analysis `xf': freq = (10 mHz -> 100 MHz)
***********************************************************

Opening the PSF file ../psf/mc1_separate/045/xf.xf ...

Notice from spectre at freq = 0 Hz during DC analysis, during XF analysis `xf', during Monte Carlo analysis `mc1'.
    Bad pivoting is found during DC analysis. Option dc_pivot_check=yes is recommended for possible improvement of convergence.
Warning from spectre at freq = 0 Hz during check, during DC analysis, during XF analysis `xf', during Monte Carlo analysis `mc1'.
    WARNING (CMI-2943): Parameter checks have been ignored because the valid value for parameter 'trise' could not be found in 'C1'.
    WARNING (CMI-2943): Parameter checks have been ignored because the valid value for parameter 'trise' could not be found in 'I0.R2.CM'.
    WARNING (CMI-2943): Parameter checks have been ignored because the valid value for parameter 'trise' could not be found in 'I0.R2.CS1'.
    WARNING (CMI-2943): Parameter checks have been ignored because the valid value for parameter 'trise' could not be found in 'I0.R2.CS0'.
    WARNING (CMI-2943): Parameter checks have been ignored because the valid value for parameter 'trise' could not be found in 'I0.C3.C1'.
        Further occurrences of this warning will be suppressed.

Convergence achieved in 17 iterations.
DC simulation time: CPU = 1.7 ms, elapsed = 1.70016 ms.
    xf: freq = 25.12 mHz      (4 %), step = 9.27 mHz        (2 %)
    xf: freq = 39.81 mHz      (6 %), step = 14.69 mHz       (2 %)
    xf: freq = 63.1 mHz       (8 %), step = 23.29 mHz       (2 %)
    xf: freq = 100 mHz       (10 %), step = 36.9 mHz        (2 %)
    xf: freq = 158.5 mHz     (12 %), step = 58.49 mHz       (2 %)
    xf: freq = 251.2 mHz     (14 %), step = 92.7 mHz        (2 %)
    xf: freq = 398.1 mHz     (16 %), step = 146.9 mHz       (2 %)
    xf: freq = 631 mHz       (18 %), step = 232.9 mHz       (2 %)
    xf: freq = 1 Hz          (20 %), step = 369 mHz         (2 %)
    xf: freq = 1.585 Hz      (22 %), step = 584.9 mHz       (2 %)
    xf: freq = 2.512 Hz      (24 %), step = 927 mHz         (2 %)
    xf: freq = 3.981 Hz      (26 %), step = 1.469 Hz        (2 %)
    xf: freq = 6.31 Hz       (28 %), step = 2.329 Hz        (2 %)
    xf: freq = 10 Hz         (30 %), step = 3.69 Hz         (2 %)
    xf: freq = 15.85 Hz      (32 %), step = 5.849 Hz        (2 %)
    xf: freq = 25.12 Hz      (34 %), step = 9.27 Hz         (2 %)
    xf: freq = 39.81 Hz      (36 %), step = 14.69 Hz        (2 %)
    xf: freq = 63.1 Hz       (38 %), step = 23.29 Hz        (2 %)
    xf: freq = 100 Hz        (40 %), step = 36.9 Hz         (2 %)
    xf: freq = 158.5 Hz      (42 %), step = 58.49 Hz        (2 %)
    xf: freq = 251.2 Hz      (44 %), step = 92.7 Hz         (2 %)
    xf: freq = 398.1 Hz      (46 %), step = 146.9 Hz        (2 %)
    xf: freq = 631 Hz        (48 %), step = 232.9 Hz        (2 %)
    xf: freq = 1 kHz         (50 %), step = 369 Hz          (2 %)
    xf: freq = 1.585 kHz     (52 %), step = 584.9 Hz        (2 %)
    xf: freq = 2.512 kHz     (54 %), step = 927 Hz          (2 %)
    xf: freq = 3.981 kHz     (56 %), step = 1.469 kHz       (2 %)
    xf: freq = 6.31 kHz      (58 %), step = 2.329 kHz       (2 %)
    xf: freq = 10 kHz        (60 %), step = 3.69 kHz        (2 %)
    xf: freq = 15.85 kHz     (62 %), step = 5.849 kHz       (2 %)
    xf: freq = 25.12 kHz     (64 %), step = 9.27 kHz        (2 %)
    xf: freq = 39.81 kHz     (66 %), step = 14.69 kHz       (2 %)
    xf: freq = 63.1 kHz      (68 %), step = 23.29 kHz       (2 %)
    xf: freq = 100 kHz       (70 %), step = 36.9 kHz        (2 %)
    xf: freq = 158.5 kHz     (72 %), step = 58.49 kHz       (2 %)
    xf: freq = 251.2 kHz     (74 %), step = 92.7 kHz        (2 %)
    xf: freq = 398.1 kHz     (76 %), step = 146.9 kHz       (2 %)
    xf: freq = 631 kHz       (78 %), step = 232.9 kHz       (2 %)
    xf: freq = 1 MHz         (80 %), step = 369 kHz         (2 %)
    xf: freq = 1.585 MHz     (82 %), step = 584.9 kHz       (2 %)
    xf: freq = 2.512 MHz     (84 %), step = 927 kHz         (2 %)
    xf: freq = 3.981 MHz     (86 %), step = 1.469 MHz       (2 %)
    xf: freq = 6.31 MHz      (88 %), step = 2.329 MHz       (2 %)
    xf: freq = 10 MHz        (90 %), step = 3.69 MHz        (2 %)
    xf: freq = 15.85 MHz     (92 %), step = 5.849 MHz       (2 %)
    xf: freq = 25.12 MHz     (94 %), step = 9.27 MHz        (2 %)
    xf: freq = 39.81 MHz     (96 %), step = 14.69 MHz       (2 %)
    xf: freq = 63.1 MHz      (98 %), step = 23.29 MHz       (2 %)
    xf: freq = 100 MHz      (100 %), step = 36.9 MHz        (2 %)
Accumulated DC solution time =            953.674 ns.
Intrinsic xf analysis time =              6.92105 ms.
Total time required for xf analysis `xf': CPU = 6.323 ms, elapsed = 7.06291 ms, util. = 89.5%.
Time accumulated: CPU = 593.188 ms, elapsed = 1.12691 s.
Peak resident memory used = 203 Mbytes.


Notice from spectre during XF analysis `xf', during Monte Carlo analysis `mc1'.
    34 warnings suppressed.

modelParameter: writing model parameter values to rawfile.

Opening the PSF file ../psf/mc1_separate/045/modelParameter.info ...
element: writing instance parameter values to rawfile.

Opening the PSF file ../psf/mc1_separate/045/element.info ...
outputParameter: writing output parameter values to rawfile.

Opening the PSF file ../psf/mc1_separate/045/outputParameter.info ...
designParamVals: writing netlist parameters to rawfile.

Opening the PSFASCII file ../psf/mc1_separate/045/designParamVals.info ...
primitives: writing primitives to rawfile.

Opening the PSFASCII file ../psf/mc1_separate/045/primitives.info.primitives ...
subckts: writing subcircuits to rawfile.

Opening the PSFASCII file ../psf/mc1_separate/045/subckts.info.subckts ...
    mc1: iteration = 45            (50 %), step = 1              (10 %)
46  60.00% 

*****************************************************************************************
* 
* INFO: AMS_processOption = C35B4C3
* 
* INFO: Valid Modules  PIP VG5 HIRES
* 
*****************************************************************************************


***********************************************************
Transfer Function Analysis `xf': freq = (10 mHz -> 100 MHz)
***********************************************************

Opening the PSF file ../psf/mc1_separate/046/xf.xf ...

Notice from spectre at freq = 0 Hz during DC analysis, during XF analysis `xf', during Monte Carlo analysis `mc1'.
    Bad pivoting is found during DC analysis. Option dc_pivot_check=yes is recommended for possible improvement of convergence.
Warning from spectre at freq = 0 Hz during check, during DC analysis, during XF analysis `xf', during Monte Carlo analysis `mc1'.
    WARNING (CMI-2943): Parameter checks have been ignored because the valid value for parameter 'trise' could not be found in 'C1'.
    WARNING (CMI-2943): Parameter checks have been ignored because the valid value for parameter 'trise' could not be found in 'I0.R2.CM'.
    WARNING (CMI-2943): Parameter checks have been ignored because the valid value for parameter 'trise' could not be found in 'I0.R2.CS1'.
    WARNING (CMI-2943): Parameter checks have been ignored because the valid value for parameter 'trise' could not be found in 'I0.R2.CS0'.
    WARNING (CMI-2943): Parameter checks have been ignored because the valid value for parameter 'trise' could not be found in 'I0.C3.C1'.
        Further occurrences of this warning will be suppressed.

Convergence achieved in 17 iterations.
DC simulation time: CPU = 1.93 ms, elapsed = 1.93 ms.
    xf: freq = 25.12 mHz      (4 %), step = 9.27 mHz        (2 %)
    xf: freq = 39.81 mHz      (6 %), step = 14.69 mHz       (2 %)
    xf: freq = 63.1 mHz       (8 %), step = 23.29 mHz       (2 %)
    xf: freq = 100 mHz       (10 %), step = 36.9 mHz        (2 %)
    xf: freq = 158.5 mHz     (12 %), step = 58.49 mHz       (2 %)
    xf: freq = 251.2 mHz     (14 %), step = 92.7 mHz        (2 %)
    xf: freq = 398.1 mHz     (16 %), step = 146.9 mHz       (2 %)
    xf: freq = 631 mHz       (18 %), step = 232.9 mHz       (2 %)
    xf: freq = 1 Hz          (20 %), step = 369 mHz         (2 %)
    xf: freq = 1.585 Hz      (22 %), step = 584.9 mHz       (2 %)
    xf: freq = 2.512 Hz      (24 %), step = 927 mHz         (2 %)
    xf: freq = 3.981 Hz      (26 %), step = 1.469 Hz        (2 %)
    xf: freq = 6.31 Hz       (28 %), step = 2.329 Hz        (2 %)
    xf: freq = 10 Hz         (30 %), step = 3.69 Hz         (2 %)
    xf: freq = 15.85 Hz      (32 %), step = 5.849 Hz        (2 %)
    xf: freq = 25.12 Hz      (34 %), step = 9.27 Hz         (2 %)
    xf: freq = 39.81 Hz      (36 %), step = 14.69 Hz        (2 %)
    xf: freq = 63.1 Hz       (38 %), step = 23.29 Hz        (2 %)
    xf: freq = 100 Hz        (40 %), step = 36.9 Hz         (2 %)
    xf: freq = 158.5 Hz      (42 %), step = 58.49 Hz        (2 %)
    xf: freq = 251.2 Hz      (44 %), step = 92.7 Hz         (2 %)
    xf: freq = 398.1 Hz      (46 %), step = 146.9 Hz        (2 %)
    xf: freq = 631 Hz        (48 %), step = 232.9 Hz        (2 %)
    xf: freq = 1 kHz         (50 %), step = 369 Hz          (2 %)
    xf: freq = 1.585 kHz     (52 %), step = 584.9 Hz        (2 %)
    xf: freq = 2.512 kHz     (54 %), step = 927 Hz          (2 %)
    xf: freq = 3.981 kHz     (56 %), step = 1.469 kHz       (2 %)
    xf: freq = 6.31 kHz      (58 %), step = 2.329 kHz       (2 %)
    xf: freq = 10 kHz        (60 %), step = 3.69 kHz        (2 %)
    xf: freq = 15.85 kHz     (62 %), step = 5.849 kHz       (2 %)
    xf: freq = 25.12 kHz     (64 %), step = 9.27 kHz        (2 %)
    xf: freq = 39.81 kHz     (66 %), step = 14.69 kHz       (2 %)
    xf: freq = 63.1 kHz      (68 %), step = 23.29 kHz       (2 %)
    xf: freq = 100 kHz       (70 %), step = 36.9 kHz        (2 %)
    xf: freq = 158.5 kHz     (72 %), step = 58.49 kHz       (2 %)
    xf: freq = 251.2 kHz     (74 %), step = 92.7 kHz        (2 %)
    xf: freq = 398.1 kHz     (76 %), step = 146.9 kHz       (2 %)
    xf: freq = 631 kHz       (78 %), step = 232.9 kHz       (2 %)
    xf: freq = 1 MHz         (80 %), step = 369 kHz         (2 %)
    xf: freq = 1.585 MHz     (82 %), step = 584.9 kHz       (2 %)
    xf: freq = 2.512 MHz     (84 %), step = 927 kHz         (2 %)
    xf: freq = 3.981 MHz     (86 %), step = 1.469 MHz       (2 %)
    xf: freq = 6.31 MHz      (88 %), step = 2.329 MHz       (2 %)
    xf: freq = 10 MHz        (90 %), step = 3.69 MHz        (2 %)
    xf: freq = 15.85 MHz     (92 %), step = 5.849 MHz       (2 %)
    xf: freq = 25.12 MHz     (94 %), step = 9.27 MHz        (2 %)
    xf: freq = 39.81 MHz     (96 %), step = 14.69 MHz       (2 %)
    xf: freq = 63.1 MHz      (98 %), step = 23.29 MHz       (2 %)
    xf: freq = 100 MHz      (100 %), step = 36.9 MHz        (2 %)
Accumulated DC solution time =            1.19209 us.
Intrinsic xf analysis time =              7.51495 ms.
Total time required for xf analysis `xf': CPU = 6.832 ms, elapsed = 7.73287 ms, util. = 88.4%.
Time accumulated: CPU = 623.342 ms, elapsed = 1.16679 s.
Peak resident memory used = 203 Mbytes.


Notice from spectre during XF analysis `xf', during Monte Carlo analysis `mc1'.
    34 warnings suppressed.

modelParameter: writing model parameter values to rawfile.

Opening the PSF file ../psf/mc1_separate/046/modelParameter.info ...
element: writing instance parameter values to rawfile.

Opening the PSF file ../psf/mc1_separate/046/element.info ...
outputParameter: writing output parameter values to rawfile.

Opening the PSF file ../psf/mc1_separate/046/outputParameter.info ...
designParamVals: writing netlist parameters to rawfile.

Opening the PSFASCII file ../psf/mc1_separate/046/designParamVals.info ...
primitives: writing primitives to rawfile.

Opening the PSFASCII file ../psf/mc1_separate/046/primitives.info.primitives ...
subckts: writing subcircuits to rawfile.

Opening the PSFASCII file ../psf/mc1_separate/046/subckts.info.subckts ...
    mc1: iteration = 46            (60 %), step = 1              (10 %)
47  70.00% 

*****************************************************************************************
* 
* INFO: AMS_processOption = C35B4C3
* 
* INFO: Valid Modules  PIP VG5 HIRES
* 
*****************************************************************************************


***********************************************************
Transfer Function Analysis `xf': freq = (10 mHz -> 100 MHz)
***********************************************************

Opening the PSF file ../psf/mc1_separate/047/xf.xf ...

Notice from spectre at freq = 0 Hz during DC analysis, during XF analysis `xf', during Monte Carlo analysis `mc1'.
    Bad pivoting is found during DC analysis. Option dc_pivot_check=yes is recommended for possible improvement of convergence.
Warning from spectre at freq = 0 Hz during check, during DC analysis, during XF analysis `xf', during Monte Carlo analysis `mc1'.
    WARNING (CMI-2943): Parameter checks have been ignored because the valid value for parameter 'trise' could not be found in 'C1'.
    WARNING (CMI-2943): Parameter checks have been ignored because the valid value for parameter 'trise' could not be found in 'I0.R2.CM'.
    WARNING (CMI-2943): Parameter checks have been ignored because the valid value for parameter 'trise' could not be found in 'I0.R2.CS1'.
    WARNING (CMI-2943): Parameter checks have been ignored because the valid value for parameter 'trise' could not be found in 'I0.R2.CS0'.
    WARNING (CMI-2943): Parameter checks have been ignored because the valid value for parameter 'trise' could not be found in 'I0.C3.C1'.
        Further occurrences of this warning will be suppressed.

Convergence achieved in 17 iterations.
DC simulation time: CPU = 1.621 ms, elapsed = 1.62005 ms.
    xf: freq = 25.12 mHz      (4 %), step = 9.27 mHz        (2 %)
    xf: freq = 39.81 mHz      (6 %), step = 14.69 mHz       (2 %)
    xf: freq = 63.1 mHz       (8 %), step = 23.29 mHz       (2 %)
    xf: freq = 100 mHz       (10 %), step = 36.9 mHz        (2 %)
    xf: freq = 158.5 mHz     (12 %), step = 58.49 mHz       (2 %)
    xf: freq = 251.2 mHz     (14 %), step = 92.7 mHz        (2 %)
    xf: freq = 398.1 mHz     (16 %), step = 146.9 mHz       (2 %)
    xf: freq = 631 mHz       (18 %), step = 232.9 mHz       (2 %)
    xf: freq = 1 Hz          (20 %), step = 369 mHz         (2 %)
    xf: freq = 1.585 Hz      (22 %), step = 584.9 mHz       (2 %)
    xf: freq = 2.512 Hz      (24 %), step = 927 mHz         (2 %)
    xf: freq = 3.981 Hz      (26 %), step = 1.469 Hz        (2 %)
    xf: freq = 6.31 Hz       (28 %), step = 2.329 Hz        (2 %)
    xf: freq = 10 Hz         (30 %), step = 3.69 Hz         (2 %)
    xf: freq = 15.85 Hz      (32 %), step = 5.849 Hz        (2 %)
    xf: freq = 25.12 Hz      (34 %), step = 9.27 Hz         (2 %)
    xf: freq = 39.81 Hz      (36 %), step = 14.69 Hz        (2 %)
    xf: freq = 63.1 Hz       (38 %), step = 23.29 Hz        (2 %)
    xf: freq = 100 Hz        (40 %), step = 36.9 Hz         (2 %)
    xf: freq = 158.5 Hz      (42 %), step = 58.49 Hz        (2 %)
    xf: freq = 251.2 Hz      (44 %), step = 92.7 Hz         (2 %)
    xf: freq = 398.1 Hz      (46 %), step = 146.9 Hz        (2 %)
    xf: freq = 631 Hz        (48 %), step = 232.9 Hz        (2 %)
    xf: freq = 1 kHz         (50 %), step = 369 Hz          (2 %)
    xf: freq = 1.585 kHz     (52 %), step = 584.9 Hz        (2 %)
    xf: freq = 2.512 kHz     (54 %), step = 927 Hz          (2 %)
    xf: freq = 3.981 kHz     (56 %), step = 1.469 kHz       (2 %)
    xf: freq = 6.31 kHz      (58 %), step = 2.329 kHz       (2 %)
    xf: freq = 10 kHz        (60 %), step = 3.69 kHz        (2 %)
    xf: freq = 15.85 kHz     (62 %), step = 5.849 kHz       (2 %)
    xf: freq = 25.12 kHz     (64 %), step = 9.27 kHz        (2 %)
    xf: freq = 39.81 kHz     (66 %), step = 14.69 kHz       (2 %)
    xf: freq = 63.1 kHz      (68 %), step = 23.29 kHz       (2 %)
    xf: freq = 100 kHz       (70 %), step = 36.9 kHz        (2 %)
    xf: freq = 158.5 kHz     (72 %), step = 58.49 kHz       (2 %)
    xf: freq = 251.2 kHz     (74 %), step = 92.7 kHz        (2 %)
    xf: freq = 398.1 kHz     (76 %), step = 146.9 kHz       (2 %)
    xf: freq = 631 kHz       (78 %), step = 232.9 kHz       (2 %)
    xf: freq = 1 MHz         (80 %), step = 369 kHz         (2 %)
    xf: freq = 1.585 MHz     (82 %), step = 584.9 kHz       (2 %)
    xf: freq = 2.512 MHz     (84 %), step = 927 kHz         (2 %)
    xf: freq = 3.981 MHz     (86 %), step = 1.469 MHz       (2 %)
    xf: freq = 6.31 MHz      (88 %), step = 2.329 MHz       (2 %)
    xf: freq = 10 MHz        (90 %), step = 3.69 MHz        (2 %)
    xf: freq = 15.85 MHz     (92 %), step = 5.849 MHz       (2 %)
    xf: freq = 25.12 MHz     (94 %), step = 9.27 MHz        (2 %)
    xf: freq = 39.81 MHz     (96 %), step = 14.69 MHz       (2 %)
    xf: freq = 63.1 MHz      (98 %), step = 23.29 MHz       (2 %)
    xf: freq = 100 MHz      (100 %), step = 36.9 MHz        (2 %)
Accumulated DC solution time =            953.674 ns.
Intrinsic xf analysis time =              6.71911 ms.
Total time required for xf analysis `xf': CPU = 6.209 ms, elapsed = 6.87122 ms, util. = 90.4%.
Time accumulated: CPU = 651.907 ms, elapsed = 1.20459 s.
Peak resident memory used = 203 Mbytes.


Notice from spectre during XF analysis `xf', during Monte Carlo analysis `mc1'.
    34 warnings suppressed.

modelParameter: writing model parameter values to rawfile.

Opening the PSF file ../psf/mc1_separate/047/modelParameter.info ...
element: writing instance parameter values to rawfile.

Opening the PSF file ../psf/mc1_separate/047/element.info ...
outputParameter: writing output parameter values to rawfile.

Opening the PSF file ../psf/mc1_separate/047/outputParameter.info ...
designParamVals: writing netlist parameters to rawfile.

Opening the PSFASCII file ../psf/mc1_separate/047/designParamVals.info ...
primitives: writing primitives to rawfile.

Opening the PSFASCII file ../psf/mc1_separate/047/primitives.info.primitives ...
subckts: writing subcircuits to rawfile.

Opening the PSFASCII file ../psf/mc1_separate/047/subckts.info.subckts ...
    mc1: iteration = 47            (70 %), step = 1              (10 %)
48  80.00% 

*****************************************************************************************
* 
* INFO: AMS_processOption = C35B4C3
* 
* INFO: Valid Modules  PIP VG5 HIRES
* 
*****************************************************************************************


***********************************************************
Transfer Function Analysis `xf': freq = (10 mHz -> 100 MHz)
***********************************************************

Opening the PSF file ../psf/mc1_separate/048/xf.xf ...

Notice from spectre at freq = 0 Hz during DC analysis, during XF analysis `xf', during Monte Carlo analysis `mc1'.
    Bad pivoting is found during DC analysis. Option dc_pivot_check=yes is recommended for possible improvement of convergence.
Warning from spectre at freq = 0 Hz during check, during DC analysis, during XF analysis `xf', during Monte Carlo analysis `mc1'.
    WARNING (CMI-2943): Parameter checks have been ignored because the valid value for parameter 'trise' could not be found in 'C1'.
    WARNING (CMI-2943): Parameter checks have been ignored because the valid value for parameter 'trise' could not be found in 'I0.R2.CM'.
    WARNING (CMI-2943): Parameter checks have been ignored because the valid value for parameter 'trise' could not be found in 'I0.R2.CS1'.
    WARNING (CMI-2943): Parameter checks have been ignored because the valid value for parameter 'trise' could not be found in 'I0.R2.CS0'.
    WARNING (CMI-2943): Parameter checks have been ignored because the valid value for parameter 'trise' could not be found in 'I0.C3.C1'.
        Further occurrences of this warning will be suppressed.

Convergence achieved in 17 iterations.
DC simulation time: CPU = 1.712 ms, elapsed = 1.71304 ms.
    xf: freq = 25.12 mHz      (4 %), step = 9.27 mHz        (2 %)
    xf: freq = 39.81 mHz      (6 %), step = 14.69 mHz       (2 %)
    xf: freq = 63.1 mHz       (8 %), step = 23.29 mHz       (2 %)
    xf: freq = 100 mHz       (10 %), step = 36.9 mHz        (2 %)
    xf: freq = 158.5 mHz     (12 %), step = 58.49 mHz       (2 %)
    xf: freq = 251.2 mHz     (14 %), step = 92.7 mHz        (2 %)
    xf: freq = 398.1 mHz     (16 %), step = 146.9 mHz       (2 %)
    xf: freq = 631 mHz       (18 %), step = 232.9 mHz       (2 %)
    xf: freq = 1 Hz          (20 %), step = 369 mHz         (2 %)
    xf: freq = 1.585 Hz      (22 %), step = 584.9 mHz       (2 %)
    xf: freq = 2.512 Hz      (24 %), step = 927 mHz         (2 %)
    xf: freq = 3.981 Hz      (26 %), step = 1.469 Hz        (2 %)
    xf: freq = 6.31 Hz       (28 %), step = 2.329 Hz        (2 %)
    xf: freq = 10 Hz         (30 %), step = 3.69 Hz         (2 %)
    xf: freq = 15.85 Hz      (32 %), step = 5.849 Hz        (2 %)
    xf: freq = 25.12 Hz      (34 %), step = 9.27 Hz         (2 %)
    xf: freq = 39.81 Hz      (36 %), step = 14.69 Hz        (2 %)
    xf: freq = 63.1 Hz       (38 %), step = 23.29 Hz        (2 %)
    xf: freq = 100 Hz        (40 %), step = 36.9 Hz         (2 %)
    xf: freq = 158.5 Hz      (42 %), step = 58.49 Hz        (2 %)
    xf: freq = 251.2 Hz      (44 %), step = 92.7 Hz         (2 %)
    xf: freq = 398.1 Hz      (46 %), step = 146.9 Hz        (2 %)
    xf: freq = 631 Hz        (48 %), step = 232.9 Hz        (2 %)
    xf: freq = 1 kHz         (50 %), step = 369 Hz          (2 %)
    xf: freq = 1.585 kHz     (52 %), step = 584.9 Hz        (2 %)
    xf: freq = 2.512 kHz     (54 %), step = 927 Hz          (2 %)
    xf: freq = 3.981 kHz     (56 %), step = 1.469 kHz       (2 %)
    xf: freq = 6.31 kHz      (58 %), step = 2.329 kHz       (2 %)
    xf: freq = 10 kHz        (60 %), step = 3.69 kHz        (2 %)
    xf: freq = 15.85 kHz     (62 %), step = 5.849 kHz       (2 %)
    xf: freq = 25.12 kHz     (64 %), step = 9.27 kHz        (2 %)
    xf: freq = 39.81 kHz     (66 %), step = 14.69 kHz       (2 %)
    xf: freq = 63.1 kHz      (68 %), step = 23.29 kHz       (2 %)
    xf: freq = 100 kHz       (70 %), step = 36.9 kHz        (2 %)
    xf: freq = 158.5 kHz     (72 %), step = 58.49 kHz       (2 %)
    xf: freq = 251.2 kHz     (74 %), step = 92.7 kHz        (2 %)
    xf: freq = 398.1 kHz     (76 %), step = 146.9 kHz       (2 %)
    xf: freq = 631 kHz       (78 %), step = 232.9 kHz       (2 %)
    xf: freq = 1 MHz         (80 %), step = 369 kHz         (2 %)
    xf: freq = 1.585 MHz     (82 %), step = 584.9 kHz       (2 %)
    xf: freq = 2.512 MHz     (84 %), step = 927 kHz         (2 %)
    xf: freq = 3.981 MHz     (86 %), step = 1.469 MHz       (2 %)
    xf: freq = 6.31 MHz      (88 %), step = 2.329 MHz       (2 %)
    xf: freq = 10 MHz        (90 %), step = 3.69 MHz        (2 %)
    xf: freq = 15.85 MHz     (92 %), step = 5.849 MHz       (2 %)
    xf: freq = 25.12 MHz     (94 %), step = 9.27 MHz        (2 %)
    xf: freq = 39.81 MHz     (96 %), step = 14.69 MHz       (2 %)
    xf: freq = 63.1 MHz      (98 %), step = 23.29 MHz       (2 %)
    xf: freq = 100 MHz      (100 %), step = 36.9 MHz        (2 %)
Accumulated DC solution time =            953.674 ns.
Intrinsic xf analysis time =              6.93107 ms.
Total time required for xf analysis `xf': CPU = 6.412 ms, elapsed = 7.08508 ms, util. = 90.5%.
Time accumulated: CPU = 680.984 ms, elapsed = 1.24223 s.
Peak resident memory used = 203 Mbytes.


Notice from spectre during XF analysis `xf', during Monte Carlo analysis `mc1'.
    34 warnings suppressed.

modelParameter: writing model parameter values to rawfile.

Opening the PSF file ../psf/mc1_separate/048/modelParameter.info ...
element: writing instance parameter values to rawfile.

Opening the PSF file ../psf/mc1_separate/048/element.info ...
outputParameter: writing output parameter values to rawfile.

Opening the PSF file ../psf/mc1_separate/048/outputParameter.info ...
designParamVals: writing netlist parameters to rawfile.

Opening the PSFASCII file ../psf/mc1_separate/048/designParamVals.info ...
primitives: writing primitives to rawfile.

Opening the PSFASCII file ../psf/mc1_separate/048/primitives.info.primitives ...
subckts: writing subcircuits to rawfile.

Opening the PSFASCII file ../psf/mc1_separate/048/subckts.info.subckts ...
    mc1: iteration = 48            (80 %), step = 1              (10 %)
49  90.00% 

*****************************************************************************************
* 
* INFO: AMS_processOption = C35B4C3
* 
* INFO: Valid Modules  PIP VG5 HIRES
* 
*****************************************************************************************


***********************************************************
Transfer Function Analysis `xf': freq = (10 mHz -> 100 MHz)
***********************************************************

Opening the PSF file ../psf/mc1_separate/049/xf.xf ...

Notice from spectre at freq = 0 Hz during DC analysis, during XF analysis `xf', during Monte Carlo analysis `mc1'.
    Bad pivoting is found during DC analysis. Option dc_pivot_check=yes is recommended for possible improvement of convergence.
Warning from spectre at freq = 0 Hz during check, during DC analysis, during XF analysis `xf', during Monte Carlo analysis `mc1'.
    WARNING (CMI-2943): Parameter checks have been ignored because the valid value for parameter 'trise' could not be found in 'C1'.
    WARNING (CMI-2943): Parameter checks have been ignored because the valid value for parameter 'trise' could not be found in 'I0.R2.CM'.
    WARNING (CMI-2943): Parameter checks have been ignored because the valid value for parameter 'trise' could not be found in 'I0.R2.CS1'.
    WARNING (CMI-2943): Parameter checks have been ignored because the valid value for parameter 'trise' could not be found in 'I0.R2.CS0'.
    WARNING (CMI-2943): Parameter checks have been ignored because the valid value for parameter 'trise' could not be found in 'I0.C3.C1'.
        Further occurrences of this warning will be suppressed.

Convergence achieved in 17 iterations.
DC simulation time: CPU = 1.651 ms, elapsed = 1.65796 ms.
    xf: freq = 25.12 mHz      (4 %), step = 9.27 mHz        (2 %)
    xf: freq = 39.81 mHz      (6 %), step = 14.69 mHz       (2 %)
    xf: freq = 63.1 mHz       (8 %), step = 23.29 mHz       (2 %)
    xf: freq = 100 mHz       (10 %), step = 36.9 mHz        (2 %)
    xf: freq = 158.5 mHz     (12 %), step = 58.49 mHz       (2 %)
    xf: freq = 251.2 mHz     (14 %), step = 92.7 mHz        (2 %)
    xf: freq = 398.1 mHz     (16 %), step = 146.9 mHz       (2 %)
    xf: freq = 631 mHz       (18 %), step = 232.9 mHz       (2 %)
    xf: freq = 1 Hz          (20 %), step = 369 mHz         (2 %)
    xf: freq = 1.585 Hz      (22 %), step = 584.9 mHz       (2 %)
    xf: freq = 2.512 Hz      (24 %), step = 927 mHz         (2 %)
    xf: freq = 3.981 Hz      (26 %), step = 1.469 Hz        (2 %)
    xf: freq = 6.31 Hz       (28 %), step = 2.329 Hz        (2 %)
    xf: freq = 10 Hz         (30 %), step = 3.69 Hz         (2 %)
    xf: freq = 15.85 Hz      (32 %), step = 5.849 Hz        (2 %)
    xf: freq = 25.12 Hz      (34 %), step = 9.27 Hz         (2 %)
    xf: freq = 39.81 Hz      (36 %), step = 14.69 Hz        (2 %)
    xf: freq = 63.1 Hz       (38 %), step = 23.29 Hz        (2 %)
    xf: freq = 100 Hz        (40 %), step = 36.9 Hz         (2 %)
    xf: freq = 158.5 Hz      (42 %), step = 58.49 Hz        (2 %)
    xf: freq = 251.2 Hz      (44 %), step = 92.7 Hz         (2 %)
    xf: freq = 398.1 Hz      (46 %), step = 146.9 Hz        (2 %)
    xf: freq = 631 Hz        (48 %), step = 232.9 Hz        (2 %)
    xf: freq = 1 kHz         (50 %), step = 369 Hz          (2 %)
    xf: freq = 1.585 kHz     (52 %), step = 584.9 Hz        (2 %)
    xf: freq = 2.512 kHz     (54 %), step = 927 Hz          (2 %)
    xf: freq = 3.981 kHz     (56 %), step = 1.469 kHz       (2 %)
    xf: freq = 6.31 kHz      (58 %), step = 2.329 kHz       (2 %)
    xf: freq = 10 kHz        (60 %), step = 3.69 kHz        (2 %)
    xf: freq = 15.85 kHz     (62 %), step = 5.849 kHz       (2 %)
    xf: freq = 25.12 kHz     (64 %), step = 9.27 kHz        (2 %)
    xf: freq = 39.81 kHz     (66 %), step = 14.69 kHz       (2 %)
    xf: freq = 63.1 kHz      (68 %), step = 23.29 kHz       (2 %)
    xf: freq = 100 kHz       (70 %), step = 36.9 kHz        (2 %)
    xf: freq = 158.5 kHz     (72 %), step = 58.49 kHz       (2 %)
    xf: freq = 251.2 kHz     (74 %), step = 92.7 kHz        (2 %)
    xf: freq = 398.1 kHz     (76 %), step = 146.9 kHz       (2 %)
    xf: freq = 631 kHz       (78 %), step = 232.9 kHz       (2 %)
    xf: freq = 1 MHz         (80 %), step = 369 kHz         (2 %)
    xf: freq = 1.585 MHz     (82 %), step = 584.9 kHz       (2 %)
    xf: freq = 2.512 MHz     (84 %), step = 927 kHz         (2 %)
    xf: freq = 3.981 MHz     (86 %), step = 1.469 MHz       (2 %)
    xf: freq = 6.31 MHz      (88 %), step = 2.329 MHz       (2 %)
    xf: freq = 10 MHz        (90 %), step = 3.69 MHz        (2 %)
    xf: freq = 15.85 MHz     (92 %), step = 5.849 MHz       (2 %)
    xf: freq = 25.12 MHz     (94 %), step = 9.27 MHz        (2 %)
    xf: freq = 39.81 MHz     (96 %), step = 14.69 MHz       (2 %)
    xf: freq = 63.1 MHz      (98 %), step = 23.29 MHz       (2 %)
    xf: freq = 100 MHz      (100 %), step = 36.9 MHz        (2 %)
Accumulated DC solution time =            0 s.
Intrinsic xf analysis time =              6.97398 ms.
Total time required for xf analysis `xf': CPU = 6.268 ms, elapsed = 7.10511 ms, util. = 88.2%.
Time accumulated: CPU = 709.876 ms, elapsed = 1.2812 s.
Peak resident memory used = 203 Mbytes.


Notice from spectre during XF analysis `xf', during Monte Carlo analysis `mc1'.
    34 warnings suppressed.

modelParameter: writing model parameter values to rawfile.

Opening the PSF file ../psf/mc1_separate/049/modelParameter.info ...
element: writing instance parameter values to rawfile.

Opening the PSF file ../psf/mc1_separate/049/element.info ...
outputParameter: writing output parameter values to rawfile.

Opening the PSF file ../psf/mc1_separate/049/outputParameter.info ...
designParamVals: writing netlist parameters to rawfile.

Opening the PSFASCII file ../psf/mc1_separate/049/designParamVals.info ...
primitives: writing primitives to rawfile.

Opening the PSFASCII file ../psf/mc1_separate/049/primitives.info.primitives ...
subckts: writing subcircuits to rawfile.

Opening the PSFASCII file ../psf/mc1_separate/049/subckts.info.subckts ...
    mc1: iteration = 49            (90 %), step = 1              (10 %)
50 100.00% 

*****************************************************************************************
* 
* INFO: AMS_processOption = C35B4C3
* 
* INFO: Valid Modules  PIP VG5 HIRES
* 
*****************************************************************************************


***********************************************************
Transfer Function Analysis `xf': freq = (10 mHz -> 100 MHz)
***********************************************************

Opening the PSF file ../psf/mc1_separate/050/xf.xf ...

Notice from spectre at freq = 0 Hz during DC analysis, during XF analysis `xf', during Monte Carlo analysis `mc1'.
    Bad pivoting is found during DC analysis. Option dc_pivot_check=yes is recommended for possible improvement of convergence.
Warning from spectre at freq = 0 Hz during check, during DC analysis, during XF analysis `xf', during Monte Carlo analysis `mc1'.
    WARNING (CMI-2943): Parameter checks have been ignored because the valid value for parameter 'trise' could not be found in 'C1'.
    WARNING (CMI-2943): Parameter checks have been ignored because the valid value for parameter 'trise' could not be found in 'I0.R2.CM'.
    WARNING (CMI-2943): Parameter checks have been ignored because the valid value for parameter 'trise' could not be found in 'I0.R2.CS1'.
    WARNING (CMI-2943): Parameter checks have been ignored because the valid value for parameter 'trise' could not be found in 'I0.R2.CS0'.
    WARNING (CMI-2943): Parameter checks have been ignored because the valid value for parameter 'trise' could not be found in 'I0.C3.C1'.
        Further occurrences of this warning will be suppressed.

Convergence achieved in 17 iterations.
DC simulation time: CPU = 1.638 ms, elapsed = 1.63913 ms.
    xf: freq = 25.12 mHz      (4 %), step = 9.27 mHz        (2 %)
    xf: freq = 39.81 mHz      (6 %), step = 14.69 mHz       (2 %)
    xf: freq = 63.1 mHz       (8 %), step = 23.29 mHz       (2 %)
    xf: freq = 100 mHz       (10 %), step = 36.9 mHz        (2 %)
    xf: freq = 158.5 mHz     (12 %), step = 58.49 mHz       (2 %)
    xf: freq = 251.2 mHz     (14 %), step = 92.7 mHz        (2 %)
    xf: freq = 398.1 mHz     (16 %), step = 146.9 mHz       (2 %)
    xf: freq = 631 mHz       (18 %), step = 232.9 mHz       (2 %)
    xf: freq = 1 Hz          (20 %), step = 369 mHz         (2 %)
    xf: freq = 1.585 Hz      (22 %), step = 584.9 mHz       (2 %)
    xf: freq = 2.512 Hz      (24 %), step = 927 mHz         (2 %)
    xf: freq = 3.981 Hz      (26 %), step = 1.469 Hz        (2 %)
    xf: freq = 6.31 Hz       (28 %), step = 2.329 Hz        (2 %)
    xf: freq = 10 Hz         (30 %), step = 3.69 Hz         (2 %)
    xf: freq = 15.85 Hz      (32 %), step = 5.849 Hz        (2 %)
    xf: freq = 25.12 Hz      (34 %), step = 9.27 Hz         (2 %)
    xf: freq = 39.81 Hz      (36 %), step = 14.69 Hz        (2 %)
    xf: freq = 63.1 Hz       (38 %), step = 23.29 Hz        (2 %)
    xf: freq = 100 Hz        (40 %), step = 36.9 Hz         (2 %)
    xf: freq = 158.5 Hz      (42 %), step = 58.49 Hz        (2 %)
    xf: freq = 251.2 Hz      (44 %), step = 92.7 Hz         (2 %)
    xf: freq = 398.1 Hz      (46 %), step = 146.9 Hz        (2 %)
    xf: freq = 631 Hz        (48 %), step = 232.9 Hz        (2 %)
    xf: freq = 1 kHz         (50 %), step = 369 Hz          (2 %)
    xf: freq = 1.585 kHz     (52 %), step = 584.9 Hz        (2 %)
    xf: freq = 2.512 kHz     (54 %), step = 927 Hz          (2 %)
    xf: freq = 3.981 kHz     (56 %), step = 1.469 kHz       (2 %)
    xf: freq = 6.31 kHz      (58 %), step = 2.329 kHz       (2 %)
    xf: freq = 10 kHz        (60 %), step = 3.69 kHz        (2 %)
    xf: freq = 15.85 kHz     (62 %), step = 5.849 kHz       (2 %)
    xf: freq = 25.12 kHz     (64 %), step = 9.27 kHz        (2 %)
    xf: freq = 39.81 kHz     (66 %), step = 14.69 kHz       (2 %)
    xf: freq = 63.1 kHz      (68 %), step = 23.29 kHz       (2 %)
    xf: freq = 100 kHz       (70 %), step = 36.9 kHz        (2 %)
    xf: freq = 158.5 kHz     (72 %), step = 58.49 kHz       (2 %)
    xf: freq = 251.2 kHz     (74 %), step = 92.7 kHz        (2 %)
    xf: freq = 398.1 kHz     (76 %), step = 146.9 kHz       (2 %)
    xf: freq = 631 kHz       (78 %), step = 232.9 kHz       (2 %)
    xf: freq = 1 MHz         (80 %), step = 369 kHz         (2 %)
    xf: freq = 1.585 MHz     (82 %), step = 584.9 kHz       (2 %)
    xf: freq = 2.512 MHz     (84 %), step = 927 kHz         (2 %)
    xf: freq = 3.981 MHz     (86 %), step = 1.469 MHz       (2 %)
    xf: freq = 6.31 MHz      (88 %), step = 2.329 MHz       (2 %)
    xf: freq = 10 MHz        (90 %), step = 3.69 MHz        (2 %)
    xf: freq = 15.85 MHz     (92 %), step = 5.849 MHz       (2 %)
    xf: freq = 25.12 MHz     (94 %), step = 9.27 MHz        (2 %)
    xf: freq = 39.81 MHz     (96 %), step = 14.69 MHz       (2 %)
    xf: freq = 63.1 MHz      (98 %), step = 23.29 MHz       (2 %)
    xf: freq = 100 MHz      (100 %), step = 36.9 MHz        (2 %)
Accumulated DC solution time =            953.674 ns.
Intrinsic xf analysis time =              6.99615 ms.
Total time required for xf analysis `xf': CPU = 6.325 ms, elapsed = 7.13897 ms, util. = 88.6%.
Time accumulated: CPU = 738.664 ms, elapsed = 1.31974 s.
Peak resident memory used = 203 Mbytes.


Notice from spectre during XF analysis `xf', during Monte Carlo analysis `mc1'.
    34 warnings suppressed.

modelParameter: writing model parameter values to rawfile.

Opening the PSF file ../psf/mc1_separate/050/modelParameter.info ...
element: writing instance parameter values to rawfile.

Opening the PSF file ../psf/mc1_separate/050/element.info ...
outputParameter: writing output parameter values to rawfile.

Opening the PSF file ../psf/mc1_separate/050/outputParameter.info ...
designParamVals: writing netlist parameters to rawfile.

Opening the PSFASCII file ../psf/mc1_separate/050/designParamVals.info ...
primitives: writing primitives to rawfile.

Opening the PSFASCII file ../psf/mc1_separate/050/primitives.info.primitives ...
subckts: writing subcircuits to rawfile.

Opening the PSFASCII file ../psf/mc1_separate/050/subckts.info.subckts ...
    mc1: iteration = 50           (100 %), step = 1              (10 %)
Total time required for montecarlo analysis `mc1': CPU = 373.233 ms, elapsed = 487.715 ms, util. = 76.5%.
Time accumulated: CPU = 756.524 ms, elapsed = 1.34823 s.
Peak resident memory used = 203 Mbytes.

Licensing Information:
Lic Summary:
[08:24:19.402040] Cdslmd servers:3000@lic08.ug.kth.se:29000@lic06.ug.kth.se
[08:24:19.402072] Feature usage summary:
[08:24:19.402073] Virtuoso_Multi_mode_Simulation


Aggregate audit (8:24:19 AM, Thur Apr 16, 2026):
Time used: CPU = 764 ms, elapsed = 1.36 s, util. = 56.3%.
Time spent in licensing: elapsed = 26.5 ms.
Peak memory used = 204 Mbytes.
Simulation started at: 8:24:18 AM, Thur Apr 16, 2026, ended at: 8:24:19 AM, Thur Apr 16, 2026, with elapsed time (wall clock): 1.36 s.
spectre completes with 0 errors, 77 warnings, and 28 notices.
