
Spectre (R) Circuit Simulator
Version 24.1.0.288.isr5 64bit -- 3 Apr 2025
Copyright (C) 1989-2025 Cadence Design Systems, Inc. All rights reserved worldwide. Cadence and Spectre are registered trademarks of Cadence Design Systems, Inc. All others are the property of their respective holders.

Includes RSA BSAFE(R) Cryptographic or Security Protocol Software from RSA Security, Inc.

User: davidevi   Host: il2244vt26_davidevi   HostID: 11AC2C00   PID: 1072885
Memory  available: 3.0278 TB  physical: 3.2467 TB
Linux   : Rocky Linux release 8.10 (Green Obsidian)
CPU Type: Intel(R) Xeon(R) CPU E7-8857 v2 @ 3.00GHz
        Socket: Processors [Frequency]
        0:       0 [2999.9],  1 [2999.9],  2 [2999.9],  3 [2999.9],  4 [2999.9]
                 5 [2999.9],  6 [2999.9],  7 [2999.9],  8 [2999.9],  9 [2999.9]
                10 [2999.9], 11 [2999.9]
        1:      12 [3399.9], 13 [3399.9], 14 [3399.9], 15 [3600.0], 16 [3399.9]
                17 [3399.9], 18 [3600.0], 19 [3399.9], 20 [3399.9], 21 [3310.1]
                22 [3296.3], 23 [3399.9]
        2:      24 [2999.9], 25 [2999.9], 26 [2999.9], 27 [2800.0], 28 [2500.0]
                29 [2999.9], 30 [1200.0], 31 [2700.0], 32 [3300.0], 33 [2600.0]
                34 [3600.0], 35 [2999.4]
        3:      36 [3200.0], 37 [2999.9], 38 [2800.0], 39 [3100.0], 40 [3000.0]
                41 [2700.0], 42 [3600.0], 43 [3200.0], 44 [3500.0], 45 [3300.0]
                46 [2999.9], 47 [2999.9]
        
System load averages (1min, 5min, 15min) : 25.8 %, 25.1 %, 24.3 %
HPC is enabled


Simulating `input.scs' on il2244vt26_davidevi at 9:47:26 AM, Thur Apr 16, 2026 (process id: 1072885).
Current working directory: /home/davidevi/Desktop/myproject/Sim/VGA/VGA_1_wakeup_tb/adexl/results/data/MonteCarlo.3/1/wakeup_MC/groupRunDataDir/netlist
Command line:
    /opt/tools/cadence/installs/SPECTRE241/tools/bin/spectre -64  \
        input.scs +escchars +log ../psf/spectre.out -format psfbin  \
        +rtsf -raw ../psf +aps +mt +lqtimeout 900 -maxw 5 -maxn 5  \
        +param /opt/pdk/ams/410/spectre/ams_range.lmts -env ade  \
        -ahdllibdir  \
        /home/davidevi/Desktop/myproject/Sim/VGA/VGA_1_wakeup_tb/adexl/results/data/MonteCarlo.3/sharedData/Job491/ahdl/input.ahdlSimDB  \
        +logstatus  \
        +adespetkn=0001089D13A302B663E41FB550AF0DF415A679A322D5069144BF588C12F604E07EF416DC01A319B562BB63D373AA35E345A365E725C73DB652FE59F411DA4F9271FC79D15D9175FF34986BDD0AF002BA50FD7FD707E002A700AC1C821EFF40E20EAF79D120F874D3349879D118F874D334981031A8D5C4FE5D780000369F

Simulation Id: A0tZzPffIe2ceAEd
Licensing Information:
[09:47:27.121834] Configured Lic search path (24.01-s002): 3000@lic08.ug.kth.se:29000@lic06.ug.kth.se

Licensing Information:
[09:47:27.172368] Periodic Lic check successful

Loading /opt/tools/cadence/installs/SPECTRE241/tools.lnx86/cmi/lib/64bit/5.0/libinfineon_sh.so ...
Loading /opt/tools/cadence/installs/SPECTRE241/tools.lnx86/cmi/lib/64bit/5.0/libphilips_I_sh.so ...
Loading /opt/tools/cadence/installs/SPECTRE241/tools.lnx86/cmi/lib/64bit/5.0/libphilips_sh.so ...
Loading /opt/tools/cadence/installs/SPECTRE241/tools.lnx86/cmi/lib/64bit/5.0/libsparam_sh.so ...
Loading /opt/tools/cadence/installs/SPECTRE241/tools.lnx86/cmi/lib/64bit/5.0/libstmodels_sh.so ...

Warning from spectre.
    WARNING (SPECTRE-691): This CPU processor does not support x86 advanced vector extensions instructions. This may affect math operations and slow down the simulation.

Reading file:  /home/davidevi/Desktop/myproject/Sim/VGA/VGA_1_wakeup_tb/adexl/results/data/MonteCarlo.3/1/wakeup_MC/groupRunDataDir/netlist/input.scs
Reading file:  /opt/pdk/ams/410/spectre/ams_range.lmts

Warning from spectre during read of parameter soft limits file `/opt/pdk/ams/410/spectre/ams_range.lmts', during circuit read-in.
    WARNING (SPECTRE-8360): line 1511: `ac' is an undefined primitive device.
    WARNING (SPECTRE-8360): line 1512: `ac' is an undefined primitive device.
    WARNING (SPECTRE-8360): line 1513: `ac' is an undefined primitive device.
    WARNING (SPECTRE-8360): line 1514: `ac' is an undefined primitive device.
    WARNING (SPECTRE-8360): line 1515: `ac' is an undefined primitive device.
        Further occurrences of this warning will be suppressed.

Reading file:  /opt/tools/cadence/installs/SPECTRE241/tools.lnx86/spectre/etc/configs/spectre.cfg
Reading file:  /opt/pdk/ams/410/spectre/c35/soac/soac.scs
Reading file:  /opt/pdk/ams/410/spectre/c35/soac/processOption.scs
Reading file:  /opt/pdk/ams/410/spectre/c35/soac/process.scs
Reading file:  /opt/pdk/ams/410/spectre/c35/soac/soac.va

Warning from spectre during AHDL read-in.
    WARNING (VACOMP-2435): The environment variable CDS_AHDLCMI_ENABLE is no longer supported. Therefore, the simulator will use the default compiled C code flow.

Reading link:  /opt/tools/cadence/installs/SPECTRE241/tools.lnx86/spectre/etc/ahdl/constants.h
Reading file:  /opt/tools/cadence/installs/SPECTRE241/tools.lnx86/spectre/etc/ahdl/constants.vams
Reading link:  /opt/tools/cadence/installs/SPECTRE241/tools.lnx86/spectre/etc/ahdl/discipline.h
Reading file:  /opt/tools/cadence/installs/SPECTRE241/tools.lnx86/spectre/etc/ahdl/disciplines.vams
Reading file:  /opt/pdk/ams/410/spectre/c35/processOption/C35B4C3.scs
Reading file:  /opt/pdk/ams/410/spectre/c35/soac/cmos53.scs
Reading file:  /opt/pdk/ams/410/spectre/c35/soac/res.scs
Reading file:  /opt/pdk/ams/410/spectre/c35/soac/cap.scs
Reading file:  /opt/pdk/ams/410/spectre/c35/soac/bip.scs
Reading file:  /opt/pdk/ams/410/spectre/c35/soac/ind.scs
Reading file:  /opt/pdk/ams/410/spectre/c35/soac/esddiode.scs
Time for NDB Parsing: CPU = 195.768 ms, elapsed = 422.648 ms.
Time accumulated: CPU = 397.951 ms, elapsed = 422.651 ms.
Peak resident memory used = 175 Mbytes.

Existing shared object for module modn_ahdl is up to date.
Installed compiled interface for modn_ahdl.
Existing shared object for module modp_ahdl is up to date.
Installed compiled interface for modp_ahdl.
Existing shared object for module cpoly_ahdl is up to date.
Installed compiled interface for cpoly_ahdl.
Existing shared object for module rpolyh_ahdl is up to date.
Installed compiled interface for rpolyh_ahdl.
Existing shared object for module bsource_fcab9d is up to date.
Installed compiled interface for bsource_fcab9d.
Time for Elaboration: CPU = 58.02 ms, elapsed = 60.3609 ms.
Time accumulated: CPU = 456.264 ms, elapsed = 483.299 ms.
Peak resident memory used = 188 Mbytes.


Notice from spectre during hierarchy flattening.
    The value 'psf' specified for the 'checklimitdest' option will no longer be supported in future releases. Use 'spectre -h' to see other recommended values for the 'checklimitdest' option.


*****************************************************************************************
* 
* INFO: AMS_processOption = C35B4C3
* 
* INFO: Valid Modules  PIP VG5 HIRES
* 
*****************************************************************************************


Notice from spectre during hierarchy flattening.
    V8: `period' has the unusually large value of 100 s.


Time for EDB Visiting: CPU = 8.655 ms, elapsed = 8.65602 ms.
Time accumulated: CPU = 465.079 ms, elapsed = 492.114 ms.
Peak resident memory used = 191 Mbytes.

Loading /opt/tools/cadence/installs/SPECTRE241/tools.lnx86/mdl/lib/64bit/libSpectreEH_sh.so ...

Warning from spectre during initial setup.
    WARNING (SPECTRE-16460): SOAC_cvarm_vspsub:Specified subcircuit master `cvarm' was not found.
    WARNING (SPECTRE-16462): SOAC_cvarm_vspsub:Error in specification of subcircuit master. Assert is ignored.
    WARNING (SPECTRE-16460): SOAC_cvarm_vbs:Specified subcircuit master `cvarm' was not found.
    WARNING (SPECTRE-16462): SOAC_cvarm_vbs:Error in specification of subcircuit master. Assert is ignored.
    WARNING (SPECTRE-16460): SOAC_cvarm_vgb:Specified subcircuit master `cvarm' was not found.
    WARNING (SPECTRE-16462): SOAC_cvarm_vgb:Error in specification of subcircuit master. Assert is ignored.
    WARNING (SPECTRE-16460): SOAC_cvart_vspsub:Specified subcircuit master `cvart' was not found.
    WARNING (SPECTRE-16462): SOAC_cvart_vspsub:Error in specification of subcircuit master. Assert is ignored.
    WARNING (SPECTRE-16460): SOAC_cvart_vbs:Specified subcircuit master `cvart' was not found.
        Further occurrences of this warning will be suppressed.
    WARNING (SPECTRE-16462): SOAC_cvart_vbs:Error in specification of subcircuit master. Assert is ignored.
        Further occurrences of this warning will be suppressed.
Notice from spectre during topology check.
    Only one connection to the following 52 nodes:
        I0.MN6.psub!
        I0.MN5.psub!
        I0.MN4.psub!
        I0.MN3.psub!
        I0.MN2.psub!
        Further occurrences of this notice will be suppressed.
Notice from spectre during initial setup.
    Multithreading is disabled due to the size of the design being too small.


Netlist title:
        // Point Netlist Generated on: Apr 16 09:47:26 2026


Global user options:
         psfversion = 1.4.0
            vabstol = 1e-06
            iabstol = 1e-12
               temp = 27
           homotopy = 5
              limit = delta
         compatible = spice2
               gmin = 1e-12
             rforce = 1
           maxnotes = 5
           maxwarns = 5
             digits = 5
               cols = 80
             pivrel = 0.001
           sensfile = ../psf/sens.output
     checklimitdest = psf
     enable_pre_ver = yes
      ignorezerovar = yes
               save = allpub
             reltol = 0.0001
               tnom = 27
             scalem = 1
              scale = 1

Scoped user options:

Circuit inventory:
              nodes 84
            bsim3v3 33    
     bsource_fcab9d 2     
          capacitor 38    
         cpoly_ahdl 17    
            isource 1     
          modn_ahdl 19    
          modp_ahdl 14    
           resistor 1     
        rpolyh_ahdl 2     
            vsource 8     

Analysis and control statement inventory:
               info 7     
         montecarlo 1     
               tran 1     

Output statements:
             .probe 0     
           .measure 0     
               save 0     

Design checks inventory:
          paramtest 53    
             assert 175   


Notice from spectre during initial setup.
    APS enabled.
    1 notice suppressed.
    72 warnings suppressed.

Time for parsing: CPU = 18.848 ms, elapsed = 627.524 ms.
Time accumulated: CPU = 484.038 ms, elapsed = 1.11975 s.
Peak resident memory used = 197 Mbytes.

~~~~~~~~~~~~~~~~~~~~~~
Pre-Simulation Summary
~~~~~~~~~~~~~~~~~~~~~~
   -   (APS) Multi-threading. The recommended number of threads is 1, consider adding +mt=1 on command line.
~~~~~~~~~~~~~~~~~~~~~~

*************************************************
Monte Carlo Analysis `mc1': iteration = (1 -> 25)
*************************************************
Important parameter values:
    seed = 12345
    sampling = lds
    variations = all
    firstrun = 1
    numruns = 25
    nullmfactorcorrelation = no
    donominal = yes
    method = standard

**** Performing nominal run for `mc1'

Notice from spectre during transient analysis `tran', during Monte Carlo analysis `mc1'.
    No checklimit analysis defined for asserts. A default checklimit analysis 'SpectreChecklimitAnal' has been created with all asserts enabled.


***********************************************
Transient Analysis `tran': time = (0 s -> 50 s)
***********************************************

Warning from spectre during check, during IC analysis, during transient analysis `tran', during Monte Carlo analysis `mc1'.
    WARNING (CMI-2943): Parameter checks have been ignored because the valid value for parameter 'trise' could not be found in 'C1'.
    WARNING (CMI-2943): Parameter checks have been ignored because the valid value for parameter 'trise' could not be found in 'I0.R2.CM'.
    WARNING (CMI-2943): Parameter checks have been ignored because the valid value for parameter 'trise' could not be found in 'I0.R2.CS1'.
    WARNING (CMI-2943): Parameter checks have been ignored because the valid value for parameter 'trise' could not be found in 'I0.R2.CS0'.
    WARNING (CMI-2943): Parameter checks have been ignored because the valid value for parameter 'trise' could not be found in 'I0.C8<3>.C1'.
        Further occurrences of this warning will be suppressed.

Convergence achieved in 12 iterations.
DC simulation time: CPU = 3.135 ms, elapsed = 3.15189 ms.

Opening the PSF file ../psf/nom/tran.tran.tran ...
Important parameter values:
    start = 0 s
    outputstart = 0 s
    stop = 50 s
    step = 50 ms
    maxstep = 500 ms
    ic = all
    useprevic = no
    skipdc = no
    reltol = 10e-06
    abstol(V) = 1 uV
    abstol(I) = 1 pA
    temp = 27 C
    tnom = 27 C
    tempeffects = all
    errpreset = conservative
    method = gear2only
    lteratio = 10
    relref = alllocal
    cmin = 0 F
    gmin = 1 pS
    rabsshort = 1 mOhm


Notice from spectre during transient analysis `tran', during Monte Carlo analysis `mc1'.
    Multithreading is disabled due to the size of the design being too small.


Output and IC/nodeset summary:
                 save   8       (current)
                 save   83      (voltage)

    tran: time = 1.332 s     (2.66 %), step = 149.3 ms     (299 m%)
    tran: time = 3.751 s      (7.5 %), step = 383.8 ms     (768 m%)
    tran: time = 6.587 s     (13.2 %), step = 500 ms          (1 %)
    tran: time = 9.087 s     (18.2 %), step = 500 ms          (1 %)
    tran: time = 11.59 s     (23.2 %), step = 500 ms          (1 %)
    tran: time = 14.09 s     (28.2 %), step = 500 ms          (1 %)
    tran: time = 16.59 s     (33.2 %), step = 500 ms          (1 %)
    tran: time = 19.09 s     (38.2 %), step = 500 ms          (1 %)
    tran: time = 21.59 s     (43.2 %), step = 500 ms          (1 %)
    tran: time = 24.09 s     (48.2 %), step = 500 ms          (1 %)
    tran: time = 26.59 s     (53.2 %), step = 500 ms          (1 %)
    tran: time = 29.09 s     (58.2 %), step = 500 ms          (1 %)
    tran: time = 31.59 s     (63.2 %), step = 500 ms          (1 %)
    tran: time = 34.09 s     (68.2 %), step = 500 ms          (1 %)
    tran: time = 36.59 s     (73.2 %), step = 500 ms          (1 %)
    tran: time = 39.09 s     (78.2 %), step = 500 ms          (1 %)
    tran: time = 41.59 s     (83.2 %), step = 500 ms          (1 %)
    tran: time = 44.09 s     (88.2 %), step = 500 ms          (1 %)
    tran: time = 46.59 s     (93.2 %), step = 500 ms          (1 %)
    tran: time = 49.09 s     (98.2 %), step = 500 ms          (1 %)
Number of accepted tran steps =             695

Maximum value achieved for any signal of each quantity: 
V: V(S<0>) = 3.3 V
I: I(V8:p) = 6.544 uA

~~~~~~~~~~~~~~~~~~~~~~~~~~~~~~~~~
Post-Transient Simulation Summary
~~~~~~~~~~~~~~~~~~~~~~~~~~~~~~~~~
   -   To further speed up simulation, consider
          add ++aps on command line
   -   Non-default settings that could significantly slow down simulation
          errpreset = conservative, default moderate
          reltol = 10e-06, default 100e-06 (conservative)
~~~~~~~~~~~~~~~~~~~~~~~~~~~~~~~~~


During simulation, the CPU load for active processors is :
         0 (4.2 %)       1 (5.5 %)       2 (21.9 %)      3 (16.4 %)
         4 (16.7 %)      5 (9.6 %)       6 (35.4 %)      7 (15.1 %)
         8 (100.0 %)     9 (5.4 %)      10 (5.6 %)      11 (20.0 %)
        12 (28.8 %)     13 (14.6 %)     14 (30.6 %)     15 (34.0 %)
        16 (62.3 %)     17 (5.5 %)      18 (5.6 %)      19 (9.5 %)
        20 (26.2 %)     21 (12.1 %)     22 (6.2 %)      23 (4.2 %)
        24 (79.1 %)     25 (100.0 %)    26 (6.8 %)      27 (4.1 %)
        28 (44.1 %)     29 (7.6 %)      30 (16.1 %)     31 (27.1 %)
        32 (6.8 %)      33 (4.1 %)      34 (4.9 %)      35 (3.4 %)
        36 (25.2 %)     37 (100.0 %)    38 (36.3 %)     39 (28.1 %)
        40 (5.6 %)      41 (7.6 %)      42 (8.8 %)      43 (6.3 %)
        44 (12.4 %)     45 (10.4 %)     46 (34.2 %)     47 (8.5 %)
        Total: 1083.1%
Initial condition solution time: CPU = 3.185 ms, elapsed = 3.20196 ms.
Intrinsic tran analysis time:    CPU = 405.264 ms, elapsed = 406.703 ms.
Total time required for tran analysis `tran': CPU = 492.162 ms, elapsed = 497.005 ms, util. = 99%.
Time accumulated: CPU = 1.00222 s, elapsed = 1.64407 s.
Peak resident memory used = 209 Mbytes.


Notice from spectre during transient analysis `tran', during Monte Carlo analysis `mc1'.
    34 warnings suppressed.

finalTimeOP: writing operating point information to rawfile.

Opening the PSF file ../psf/nom/finalTimeOP.info ...
modelParameter: writing model parameter values to rawfile.

Opening the PSF file ../psf/nom/modelParameter.info ...
element: writing instance parameter values to rawfile.

Opening the PSF file ../psf/nom/element.info ...
outputParameter: writing output parameter values to rawfile.

Opening the PSF file ../psf/nom/outputParameter.info ...
designParamVals: writing netlist parameters to rawfile.

Opening the PSFASCII file ../psf/nom/designParamVals.info ...
primitives: writing primitives to rawfile.

Opening the PSFASCII file ../psf/nom/primitives.info.primitives ...
subckts: writing subcircuits to rawfile.

Opening the PSFASCII file ../psf/nom/subckts.info.subckts ...
Opening iteration number and data-directory mapping file:  /home/davidevi/Desktop/myproject/Sim/VGA/VGA_1_wakeup_tb/adexl/results/data/MonteCarlo.3/1/wakeup_MC/groupRunDataDir/netlist/../psf/mc1.mapping

Statistical parameters:
    Defined process parameters: 629
    Defined mismatch parameters (subckt based): 86
    Non-referenced mismatch parameters: 80
    Number of random variables: 714
    Gaussian truncation for process parameters: 4.00 sigma
    Gaussian truncation for mismatch parameters: 4.00 sigma


Opening the PSF file ../psf/mc1_tran.montecarlo ...

Opening the PSF file ../psf/mc1_finalTimeOP.montecarlo ...

Opening the PSF file ../psf/mc1_modelParameter.montecarlo ...

Opening the PSF file ../psf/mc1_element.montecarlo ...

Opening the PSF file ../psf/mc1_outputParameter.montecarlo ...

Opening the PSF file ../psf/mc1_designParamVals.montecarlo ...

Opening the PSF file ../psf/mc1_primitives.montecarlo ...

Opening the PSF file ../psf/mc1_subckts.montecarlo ...

**** Performing monte carlo loop for `mc1'

1   0.00% 

*****************************************************************************************
* 
* INFO: AMS_processOption = C35B4C3
* 
* INFO: Valid Modules  PIP VG5 HIRES
* 
*****************************************************************************************


Notice from spectre at iteration = 1 during Monte Carlo analysis `mc1'.
    V8: `period' has the unusually large value of 100 s.


***********************************************
Transient Analysis `tran': time = (0 s -> 50 s)
***********************************************

Opening the PSF file ../psf/mc1_separate/001/tran.tran.tran ...

Warning from spectre at iteration = 1 during check, during IC analysis, during transient analysis `tran', during Monte Carlo analysis `mc1'.
    WARNING (CMI-2943): Parameter checks have been ignored because the valid value for parameter 'trise' could not be found in 'C1'.
    WARNING (CMI-2943): Parameter checks have been ignored because the valid value for parameter 'trise' could not be found in 'I0.R2.CM'.
    WARNING (CMI-2943): Parameter checks have been ignored because the valid value for parameter 'trise' could not be found in 'I0.R2.CS1'.
    WARNING (CMI-2943): Parameter checks have been ignored because the valid value for parameter 'trise' could not be found in 'I0.R2.CS0'.
    WARNING (CMI-2943): Parameter checks have been ignored because the valid value for parameter 'trise' could not be found in 'I0.C8<3>.C1'.
        Further occurrences of this warning will be suppressed.

Convergence achieved in 12 iterations.
DC simulation time: CPU = 2.487 ms, elapsed = 2.48694 ms.
Important parameter values:
    start = 0 s
    outputstart = 0 s
    stop = 50 s
    step = 50 ms
    maxstep = 500 ms
    ic = all
    useprevic = no
    skipdc = no
    reltol = 10e-06
    abstol(V) = 1 uV
    abstol(I) = 1 pA
    temp = 27 C
    tnom = 27 C
    tempeffects = all
    errpreset = conservative
    method = gear2only
    lteratio = 10
    relref = alllocal
    cmin = 0 F
    gmin = 1 pS
    rabsshort = 1 mOhm


Notice from spectre at iteration = 1 during transient analysis `tran', during Monte Carlo analysis `mc1'.
    Multithreading is disabled due to the size of the design being too small.


Output and IC/nodeset summary:
                 save   8       (current)
                 save   83      (voltage)

    tran: time = 1.319 s     (2.64 %), step = 145.5 ms     (291 m%)
    tran: time = 4.062 s     (8.12 %), step = 406.9 ms     (814 m%)
    tran: time = 6.48 s        (13 %), step = 500 ms          (1 %)
    tran: time = 8.98 s        (18 %), step = 500 ms          (1 %)
    tran: time = 11.48 s       (23 %), step = 500 ms          (1 %)
    tran: time = 13.98 s       (28 %), step = 500 ms          (1 %)
    tran: time = 16.48 s       (33 %), step = 500 ms          (1 %)
    tran: time = 18.98 s       (38 %), step = 500 ms          (1 %)
    tran: time = 21.48 s       (43 %), step = 500 ms          (1 %)
    tran: time = 23.98 s       (48 %), step = 500 ms          (1 %)
    tran: time = 26.48 s       (53 %), step = 500 ms          (1 %)
    tran: time = 28.98 s       (58 %), step = 500 ms          (1 %)
    tran: time = 31.48 s       (63 %), step = 500 ms          (1 %)
    tran: time = 33.98 s       (68 %), step = 500 ms          (1 %)
    tran: time = 36.48 s       (73 %), step = 500 ms          (1 %)
    tran: time = 38.98 s       (78 %), step = 500 ms          (1 %)
    tran: time = 41.48 s       (83 %), step = 500 ms          (1 %)
    tran: time = 43.98 s       (88 %), step = 500 ms          (1 %)
    tran: time = 46.48 s       (93 %), step = 500 ms          (1 %)
    tran: time = 48.98 s       (98 %), step = 500 ms          (1 %)
Number of accepted tran steps =             701

Maximum value achieved for any signal of each quantity: 
V: V(S<0>) = 3.3 V
I: I(V8:p) = 7.295 uA
Maximum value of each quantity, excluding Verilog-A modules or dangling current sources:
V: V(vout_filt) = 3.188 V
I: I(V8:p) = 7.295 uA

~~~~~~~~~~~~~~~~~~~~~~~~~~~~~~~~~
Post-Transient Simulation Summary
~~~~~~~~~~~~~~~~~~~~~~~~~~~~~~~~~
   -   To further speed up simulation, consider
          add ++aps on command line
   -   Non-default settings that could significantly slow down simulation
          errpreset = conservative, default moderate
          reltol = 10e-06, default 100e-06 (conservative)
~~~~~~~~~~~~~~~~~~~~~~~~~~~~~~~~~


During simulation, the CPU load for active processors is :
         0 (3.0 %)       1 (4.9 %)       2 (42.6 %)      3 (14.4 %)
         4 (18.0 %)      5 (8.3 %)       6 (53.4 %)      7 (12.5 %)
         8 (100.0 %)     9 (4.8 %)      10 (5.4 %)      11 (17.9 %)
        12 (27.1 %)     13 (11.8 %)     14 (25.6 %)     15 (25.4 %)
        16 (67.8 %)     17 (10.2 %)     18 (20.0 %)     19 (10.0 %)
        20 (22.3 %)     21 (32.5 %)     22 (10.2 %)     23 (5.4 %)
        24 (56.2 %)     25 (100.0 %)    26 (7.2 %)      27 (3.8 %)
        28 (60.4 %)     29 (5.8 %)      30 (13.7 %)     31 (19.5 %)
        32 (6.7 %)      33 (4.4 %)      34 (4.9 %)      35 (3.4 %)
        36 (25.0 %)     37 (100.0 %)    38 (54.8 %)     39 (23.6 %)
        40 (5.4 %)      41 (5.8 %)      42 (6.3 %)      43 (5.9 %)
        44 (15.5 %)     45 (8.3 %)      46 (26.1 %)     47 (7.4 %)
        Total: 1123.3%
Initial condition solution time: CPU = 2.546 ms, elapsed = 2.54798 ms.
Intrinsic tran analysis time:    CPU = 409.267 ms, elapsed = 410.85 ms.
Total time required for tran analysis `tran': CPU = 414.498 ms, elapsed = 416.712 ms, util. = 99.5%.
Time accumulated: CPU = 1.50212 s, elapsed = 2.16103 s.
Peak resident memory used = 212 Mbytes.


Notice from spectre during transient analysis `tran', during Monte Carlo analysis `mc1'.
    34 warnings suppressed.

finalTimeOP: writing operating point information to rawfile.

Opening the PSF file ../psf/mc1_separate/001/finalTimeOP.info ...
modelParameter: writing model parameter values to rawfile.

Opening the PSF file ../psf/mc1_separate/001/modelParameter.info ...
element: writing instance parameter values to rawfile.

Opening the PSF file ../psf/mc1_separate/001/element.info ...
outputParameter: writing output parameter values to rawfile.

Opening the PSF file ../psf/mc1_separate/001/outputParameter.info ...
designParamVals: writing netlist parameters to rawfile.

Opening the PSFASCII file ../psf/mc1_separate/001/designParamVals.info ...
primitives: writing primitives to rawfile.

Opening the PSFASCII file ../psf/mc1_separate/001/primitives.info.primitives ...
subckts: writing subcircuits to rawfile.

Opening the PSFASCII file ../psf/mc1_separate/001/subckts.info.subckts ...
2   4.17% 

*****************************************************************************************
* 
* INFO: AMS_processOption = C35B4C3
* 
* INFO: Valid Modules  PIP VG5 HIRES
* 
*****************************************************************************************


Notice from spectre during Monte Carlo analysis `mc1'.
    V8: `period' has the unusually large value of 100 s.


***********************************************
Transient Analysis `tran': time = (0 s -> 50 s)
***********************************************

Opening the PSF file ../psf/mc1_separate/002/tran.tran.tran ...

Warning from spectre during check, during IC analysis, during transient analysis `tran', during Monte Carlo analysis `mc1'.
    WARNING (CMI-2943): Parameter checks have been ignored because the valid value for parameter 'trise' could not be found in 'C1'.
    WARNING (CMI-2943): Parameter checks have been ignored because the valid value for parameter 'trise' could not be found in 'I0.R2.CM'.
    WARNING (CMI-2943): Parameter checks have been ignored because the valid value for parameter 'trise' could not be found in 'I0.R2.CS1'.
    WARNING (CMI-2943): Parameter checks have been ignored because the valid value for parameter 'trise' could not be found in 'I0.R2.CS0'.
    WARNING (CMI-2943): Parameter checks have been ignored because the valid value for parameter 'trise' could not be found in 'I0.C8<3>.C1'.
        Further occurrences of this warning will be suppressed.

Convergence achieved in 12 iterations.
DC simulation time: CPU = 2.413 ms, elapsed = 2.41423 ms.
Important parameter values:
    start = 0 s
    outputstart = 0 s
    stop = 50 s
    step = 50 ms
    maxstep = 500 ms
    ic = all
    useprevic = no
    skipdc = no
    reltol = 10e-06
    abstol(V) = 1 uV
    abstol(I) = 1 pA
    temp = 27 C
    tnom = 27 C
    tempeffects = all
    errpreset = conservative
    method = gear2only
    lteratio = 10
    relref = alllocal
    cmin = 0 F
    gmin = 1 pS
    rabsshort = 1 mOhm


Notice from spectre during transient analysis `tran', during Monte Carlo analysis `mc1'.
    Multithreading is disabled due to the size of the design being too small.


Output and IC/nodeset summary:
                 save   8       (current)
                 save   83      (voltage)

    tran: time = 1.268 s     (2.54 %), step = 142 ms       (284 m%)
    tran: time = 3.939 s     (7.88 %), step = 387.7 ms     (775 m%)
    tran: time = 6.274 s     (12.5 %), step = 500 ms          (1 %)
    tran: time = 8.774 s     (17.5 %), step = 500 ms          (1 %)
    tran: time = 11.27 s     (22.5 %), step = 500 ms          (1 %)
    tran: time = 13.77 s     (27.5 %), step = 500 ms          (1 %)
    tran: time = 16.27 s     (32.5 %), step = 500 ms          (1 %)
    tran: time = 18.77 s     (37.5 %), step = 500 ms          (1 %)
    tran: time = 21.27 s     (42.5 %), step = 500 ms          (1 %)
    tran: time = 23.77 s     (47.5 %), step = 500 ms          (1 %)
    tran: time = 26.27 s     (52.5 %), step = 500 ms          (1 %)
    tran: time = 28.77 s     (57.5 %), step = 500 ms          (1 %)
    tran: time = 31.27 s     (62.5 %), step = 500 ms          (1 %)
    tran: time = 33.77 s     (67.5 %), step = 500 ms          (1 %)
    tran: time = 36.27 s     (72.5 %), step = 500 ms          (1 %)
    tran: time = 38.77 s     (77.5 %), step = 500 ms          (1 %)
    tran: time = 41.27 s     (82.5 %), step = 500 ms          (1 %)
    tran: time = 43.77 s     (87.5 %), step = 500 ms          (1 %)
    tran: time = 46.27 s     (92.5 %), step = 500 ms          (1 %)
    tran: time = 48.77 s     (97.5 %), step = 500 ms          (1 %)
Number of accepted tran steps =             703

Maximum value achieved for any signal of each quantity: 
V: V(S<0>) = 3.3 V
I: I(V8:p) = 6.466 uA

~~~~~~~~~~~~~~~~~~~~~~~~~~~~~~~~~
Post-Transient Simulation Summary
~~~~~~~~~~~~~~~~~~~~~~~~~~~~~~~~~
   -   To further speed up simulation, consider
          add ++aps on command line
   -   Non-default settings that could significantly slow down simulation
          errpreset = conservative, default moderate
          reltol = 10e-06, default 100e-06 (conservative)
~~~~~~~~~~~~~~~~~~~~~~~~~~~~~~~~~


During simulation, the CPU load for active processors is :
         0 (5.7 %)       1 (6.7 %)       2 (39.1 %)      3 (14.1 %)
         4 (15.5 %)      5 (8.3 %)       6 (62.1 %)      7 (27.3 %)
         8 (100.0 %)     9 (6.7 %)      10 (4.8 %)      11 (15.1 %)
        12 (39.4 %)     13 (10.5 %)     14 (22.1 %)     15 (25.2 %)
        16 (56.3 %)     17 (22.8 %)     18 (24.2 %)     19 (9.4 %)
        20 (21.3 %)     21 (39.3 %)     22 (9.9 %)      23 (5.6 %)
        24 (47.5 %)     25 (100.0 %)    26 (23.3 %)     27 (3.5 %)
        28 (51.6 %)     29 (9.1 %)      30 (13.4 %)     31 (17.1 %)
        32 (12.5 %)     33 (4.4 %)      34 (4.4 %)      35 (5.1 %)
        36 (24.0 %)     37 (100.0 %)    38 (62.5 %)     39 (19.6 %)
        40 (8.8 %)      41 (6.4 %)      42 (6.0 %)      43 (5.6 %)
        44 (16.9 %)     45 (7.6 %)      46 (29.2 %)     47 (6.8 %)
        Total: 1176.8%
Initial condition solution time: CPU = 2.454 ms, elapsed = 2.455 ms.
Intrinsic tran analysis time:    CPU = 408.139 ms, elapsed = 409.778 ms.
Total time required for tran analysis `tran': CPU = 412.96 ms, elapsed = 415.31 ms, util. = 99.4%.
Time accumulated: CPU = 1.95747 s, elapsed = 2.62982 s.
Peak resident memory used = 213 Mbytes.


Notice from spectre during transient analysis `tran', during Monte Carlo analysis `mc1'.
    34 warnings suppressed.

finalTimeOP: writing operating point information to rawfile.

Opening the PSF file ../psf/mc1_separate/002/finalTimeOP.info ...
modelParameter: writing model parameter values to rawfile.

Opening the PSF file ../psf/mc1_separate/002/modelParameter.info ...
element: writing instance parameter values to rawfile.

Opening the PSF file ../psf/mc1_separate/002/element.info ...
outputParameter: writing output parameter values to rawfile.

Opening the PSF file ../psf/mc1_separate/002/outputParameter.info ...
designParamVals: writing netlist parameters to rawfile.

Opening the PSFASCII file ../psf/mc1_separate/002/designParamVals.info ...
primitives: writing primitives to rawfile.

Opening the PSFASCII file ../psf/mc1_separate/002/primitives.info.primitives ...
subckts: writing subcircuits to rawfile.

Opening the PSFASCII file ../psf/mc1_separate/002/subckts.info.subckts ...
    mc1: iteration = 2           (4.17 %), step = 1            (4.17 %)
3   8.33% 

*****************************************************************************************
* 
* INFO: AMS_processOption = C35B4C3
* 
* INFO: Valid Modules  PIP VG5 HIRES
* 
*****************************************************************************************


Notice from spectre during Monte Carlo analysis `mc1'.
    V8: `period' has the unusually large value of 100 s.


***********************************************
Transient Analysis `tran': time = (0 s -> 50 s)
***********************************************

Opening the PSF file ../psf/mc1_separate/003/tran.tran.tran ...

Warning from spectre during check, during IC analysis, during transient analysis `tran', during Monte Carlo analysis `mc1'.
    WARNING (CMI-2943): Parameter checks have been ignored because the valid value for parameter 'trise' could not be found in 'C1'.
    WARNING (CMI-2943): Parameter checks have been ignored because the valid value for parameter 'trise' could not be found in 'I0.R2.CM'.
    WARNING (CMI-2943): Parameter checks have been ignored because the valid value for parameter 'trise' could not be found in 'I0.R2.CS1'.
    WARNING (CMI-2943): Parameter checks have been ignored because the valid value for parameter 'trise' could not be found in 'I0.R2.CS0'.
    WARNING (CMI-2943): Parameter checks have been ignored because the valid value for parameter 'trise' could not be found in 'I0.C8<3>.C1'.
        Further occurrences of this warning will be suppressed.

Convergence achieved in 12 iterations.
DC simulation time: CPU = 2.378 ms, elapsed = 2.37799 ms.
Important parameter values:
    start = 0 s
    outputstart = 0 s
    stop = 50 s
    step = 50 ms
    maxstep = 500 ms
    ic = all
    useprevic = no
    skipdc = no
    reltol = 10e-06
    abstol(V) = 1 uV
    abstol(I) = 1 pA
    temp = 27 C
    tnom = 27 C
    tempeffects = all
    errpreset = conservative
    method = gear2only
    lteratio = 10
    relref = alllocal
    cmin = 0 F
    gmin = 1 pS
    rabsshort = 1 mOhm


Notice from spectre during transient analysis `tran', during Monte Carlo analysis `mc1'.
    Multithreading is disabled due to the size of the design being too small.


Output and IC/nodeset summary:
                 save   8       (current)
                 save   83      (voltage)

    tran: time = 1.323 s     (2.65 %), step = 141.5 ms     (283 m%)
    tran: time = 3.917 s     (7.83 %), step = 385.3 ms     (771 m%)
    tran: time = 6.306 s     (12.6 %), step = 500 ms          (1 %)
    tran: time = 8.806 s     (17.6 %), step = 500 ms          (1 %)
    tran: time = 11.31 s     (22.6 %), step = 500 ms          (1 %)
    tran: time = 13.81 s     (27.6 %), step = 500 ms          (1 %)
    tran: time = 16.31 s     (32.6 %), step = 500 ms          (1 %)
    tran: time = 18.81 s     (37.6 %), step = 500 ms          (1 %)
    tran: time = 21.31 s     (42.6 %), step = 500 ms          (1 %)
    tran: time = 23.81 s     (47.6 %), step = 500 ms          (1 %)
    tran: time = 26.31 s     (52.6 %), step = 500 ms          (1 %)
    tran: time = 28.81 s     (57.6 %), step = 500 ms          (1 %)
    tran: time = 31.31 s     (62.6 %), step = 500 ms          (1 %)
    tran: time = 33.81 s     (67.6 %), step = 500 ms          (1 %)
    tran: time = 36.31 s     (72.6 %), step = 500 ms          (1 %)
    tran: time = 38.81 s     (77.6 %), step = 500 ms          (1 %)
    tran: time = 41.31 s     (82.6 %), step = 500 ms          (1 %)
    tran: time = 43.81 s     (87.6 %), step = 500 ms          (1 %)
    tran: time = 46.31 s     (92.6 %), step = 500 ms          (1 %)
    tran: time = 48.81 s     (97.6 %), step = 500 ms          (1 %)
Number of accepted tran steps =             690

Maximum value achieved for any signal of each quantity: 
V: V(S<0>) = 3.3 V
I: I(V8:p) = 6.595 uA
Maximum value of each quantity, excluding Verilog-A modules or dangling current sources:
V: V(vout_filt) = 2.853 V
I: I(V8:p) = 6.595 uA

~~~~~~~~~~~~~~~~~~~~~~~~~~~~~~~~~
Post-Transient Simulation Summary
~~~~~~~~~~~~~~~~~~~~~~~~~~~~~~~~~
   -   To further speed up simulation, consider
          add ++aps on command line
   -   Non-default settings that could significantly slow down simulation
          errpreset = conservative, default moderate
          reltol = 10e-06, default 100e-06 (conservative)
~~~~~~~~~~~~~~~~~~~~~~~~~~~~~~~~~


During simulation, the CPU load for active processors is :
         0 (6.8 %)       1 (6.1 %)       2 (33.8 %)      3 (12.4 %)
         4 (14.5 %)      5 (8.1 %)       6 (68.0 %)      7 (36.1 %)
         8 (100.0 %)     9 (9.4 %)      10 (6.1 %)      11 (13.7 %)
        12 (39.7 %)     13 (9.9 %)      14 (21.7 %)     15 (36.8 %)
        16 (61.7 %)     17 (20.1 %)     18 (30.9 %)     19 (8.4 %)
        20 (19.3 %)     21 (34.2 %)     22 (8.4 %)      23 (9.2 %)
        24 (40.7 %)     25 (100.0 %)    26 (35.2 %)     27 (10.0 %)
        28 (44.3 %)     29 (8.0 %)      30 (22.7 %)     31 (14.9 %)
        32 (10.6 %)     33 (4.0 %)      34 (3.7 %)      35 (4.7 %)
        36 (30.2 %)     37 (100.0 %)    38 (61.9 %)     39 (18.0 %)
        40 (8.1 %)      41 (11.2 %)     42 (6.7 %)      43 (7.4 %)
        44 (17.8 %)     45 (6.8 %)      46 (26.3 %)     47 (6.8 %)
        Total: 1215.2%
Initial condition solution time: CPU = 2.422 ms, elapsed = 2.42305 ms.
Intrinsic tran analysis time:    CPU = 402.341 ms, elapsed = 403.542 ms.
Total time required for tran analysis `tran': CPU = 407.174 ms, elapsed = 408.952 ms, util. = 99.6%.
Time accumulated: CPU = 2.40717 s, elapsed = 3.09249 s.
Peak resident memory used = 213 Mbytes.


Notice from spectre during transient analysis `tran', during Monte Carlo analysis `mc1'.
    34 warnings suppressed.

finalTimeOP: writing operating point information to rawfile.

Opening the PSF file ../psf/mc1_separate/003/finalTimeOP.info ...
modelParameter: writing model parameter values to rawfile.

Opening the PSF file ../psf/mc1_separate/003/modelParameter.info ...
element: writing instance parameter values to rawfile.

Opening the PSF file ../psf/mc1_separate/003/element.info ...
outputParameter: writing output parameter values to rawfile.

Opening the PSF file ../psf/mc1_separate/003/outputParameter.info ...
designParamVals: writing netlist parameters to rawfile.

Opening the PSFASCII file ../psf/mc1_separate/003/designParamVals.info ...
primitives: writing primitives to rawfile.

Opening the PSFASCII file ../psf/mc1_separate/003/primitives.info.primitives ...
subckts: writing subcircuits to rawfile.

Opening the PSFASCII file ../psf/mc1_separate/003/subckts.info.subckts ...
    mc1: iteration = 3           (8.33 %), step = 1            (4.17 %)
4  12.50% 

*****************************************************************************************
* 
* INFO: AMS_processOption = C35B4C3
* 
* INFO: Valid Modules  PIP VG5 HIRES
* 
*****************************************************************************************


Notice from spectre during Monte Carlo analysis `mc1'.
    V8: `period' has the unusually large value of 100 s.


***********************************************
Transient Analysis `tran': time = (0 s -> 50 s)
***********************************************

Opening the PSF file ../psf/mc1_separate/004/tran.tran.tran ...

Warning from spectre during check, during IC analysis, during transient analysis `tran', during Monte Carlo analysis `mc1'.
    WARNING (CMI-2943): Parameter checks have been ignored because the valid value for parameter 'trise' could not be found in 'C1'.
    WARNING (CMI-2943): Parameter checks have been ignored because the valid value for parameter 'trise' could not be found in 'I0.R2.CM'.
    WARNING (CMI-2943): Parameter checks have been ignored because the valid value for parameter 'trise' could not be found in 'I0.R2.CS1'.
    WARNING (CMI-2943): Parameter checks have been ignored because the valid value for parameter 'trise' could not be found in 'I0.R2.CS0'.
    WARNING (CMI-2943): Parameter checks have been ignored because the valid value for parameter 'trise' could not be found in 'I0.C8<3>.C1'.
        Further occurrences of this warning will be suppressed.

Convergence achieved in 12 iterations.
DC simulation time: CPU = 2.344 ms, elapsed = 2.34413 ms.
Important parameter values:
    start = 0 s
    outputstart = 0 s
    stop = 50 s
    step = 50 ms
    maxstep = 500 ms
    ic = all
    useprevic = no
    skipdc = no
    reltol = 10e-06
    abstol(V) = 1 uV
    abstol(I) = 1 pA
    temp = 27 C
    tnom = 27 C
    tempeffects = all
    errpreset = conservative
    method = gear2only
    lteratio = 10
    relref = alllocal
    cmin = 0 F
    gmin = 1 pS
    rabsshort = 1 mOhm


Notice from spectre during transient analysis `tran', during Monte Carlo analysis `mc1'.
    Multithreading is disabled due to the size of the design being too small.


Output and IC/nodeset summary:
                 save   8       (current)
                 save   83      (voltage)

    tran: time = 1.396 s     (2.79 %), step = 153.1 ms     (306 m%)
    tran: time = 3.823 s     (7.65 %), step = 384.3 ms     (769 m%)
    tran: time = 6.682 s     (13.4 %), step = 500 ms          (1 %)
    tran: time = 9.182 s     (18.4 %), step = 500 ms          (1 %)
    tran: time = 11.68 s     (23.4 %), step = 500 ms          (1 %)
    tran: time = 14.18 s     (28.4 %), step = 500 ms          (1 %)
    tran: time = 16.68 s     (33.4 %), step = 500 ms          (1 %)
    tran: time = 19.18 s     (38.4 %), step = 500 ms          (1 %)
    tran: time = 21.68 s     (43.4 %), step = 500 ms          (1 %)
    tran: time = 24.18 s     (48.4 %), step = 500 ms          (1 %)
    tran: time = 26.68 s     (53.4 %), step = 500 ms          (1 %)
    tran: time = 29.18 s     (58.4 %), step = 500 ms          (1 %)
    tran: time = 31.68 s     (63.4 %), step = 500 ms          (1 %)
    tran: time = 34.18 s     (68.4 %), step = 500 ms          (1 %)
    tran: time = 36.68 s     (73.4 %), step = 500 ms          (1 %)
    tran: time = 39.18 s     (78.4 %), step = 500 ms          (1 %)
    tran: time = 41.68 s     (83.4 %), step = 500 ms          (1 %)
    tran: time = 44.18 s     (88.4 %), step = 500 ms          (1 %)
    tran: time = 46.68 s     (93.4 %), step = 500 ms          (1 %)
    tran: time = 49.18 s     (98.4 %), step = 500 ms          (1 %)
Number of accepted tran steps =             695

Maximum value achieved for any signal of each quantity: 
V: V(S<0>) = 3.3 V
I: I(V8:p) = 7.118 uA
Maximum value of each quantity, excluding Verilog-A modules or dangling current sources:
V: V(vout_filt) = 3.053 V
I: I(V8:p) = 7.118 uA

~~~~~~~~~~~~~~~~~~~~~~~~~~~~~~~~~
Post-Transient Simulation Summary
~~~~~~~~~~~~~~~~~~~~~~~~~~~~~~~~~
   -   To further speed up simulation, consider
          add ++aps on command line
   -   Non-default settings that could significantly slow down simulation
          errpreset = conservative, default moderate
          reltol = 10e-06, default 100e-06 (conservative)
~~~~~~~~~~~~~~~~~~~~~~~~~~~~~~~~~


During simulation, the CPU load for active processors is :
         0 (7.1 %)       1 (5.6 %)       2 (30.3 %)      3 (11.3 %)
         4 (13.4 %)      5 (7.3 %)       6 (72.3 %)      7 (43.2 %)
         8 (100.0 %)     9 (11.2 %)     10 (5.8 %)      11 (13.0 %)
        12 (40.3 %)     13 (8.9 %)      14 (31.6 %)     15 (43.9 %)
        16 (66.4 %)     17 (18.6 %)     18 (27.2 %)     19 (7.8 %)
        20 (18.3 %)     21 (30.4 %)     22 (15.5 %)     23 (8.6 %)
        24 (36.5 %)     25 (100.0 %)    26 (43.4 %)     27 (8.7 %)
        28 (38.8 %)     29 (7.0 %)      30 (23.7 %)     31 (13.2 %)
        32 (9.5 %)      33 (3.5 %)      34 (3.2 %)      35 (4.1 %)
        36 (39.1 %)     37 (100.0 %)    38 (54.0 %)     39 (17.3 %)
        40 (9.3 %)      41 (19.7 %)     42 (7.6 %)      43 (6.7 %)
        44 (18.6 %)     45 (17.6 %)     46 (24.4 %)     47 (6.8 %)
        Total: 1250.5%
Initial condition solution time: CPU = 2.387 ms, elapsed = 2.38895 ms.
Intrinsic tran analysis time:    CPU = 403.181 ms, elapsed = 404.601 ms.
Total time required for tran analysis `tran': CPU = 407.903 ms, elapsed = 409.986 ms, util. = 99.5%.
Time accumulated: CPU = 2.85774 s, elapsed = 3.55557 s.
Peak resident memory used = 213 Mbytes.


Notice from spectre during transient analysis `tran', during Monte Carlo analysis `mc1'.
    34 warnings suppressed.

finalTimeOP: writing operating point information to rawfile.

Opening the PSF file ../psf/mc1_separate/004/finalTimeOP.info ...
modelParameter: writing model parameter values to rawfile.

Opening the PSF file ../psf/mc1_separate/004/modelParameter.info ...
element: writing instance parameter values to rawfile.

Opening the PSF file ../psf/mc1_separate/004/element.info ...
outputParameter: writing output parameter values to rawfile.

Opening the PSF file ../psf/mc1_separate/004/outputParameter.info ...
designParamVals: writing netlist parameters to rawfile.

Opening the PSFASCII file ../psf/mc1_separate/004/designParamVals.info ...
primitives: writing primitives to rawfile.

Opening the PSFASCII file ../psf/mc1_separate/004/primitives.info.primitives ...
subckts: writing subcircuits to rawfile.

Opening the PSFASCII file ../psf/mc1_separate/004/subckts.info.subckts ...
    mc1: iteration = 4           (12.5 %), step = 1            (4.17 %)
5  16.67% 

*****************************************************************************************
* 
* INFO: AMS_processOption = C35B4C3
* 
* INFO: Valid Modules  PIP VG5 HIRES
* 
*****************************************************************************************


Notice from spectre during Monte Carlo analysis `mc1'.
    V8: `period' has the unusually large value of 100 s.


***********************************************
Transient Analysis `tran': time = (0 s -> 50 s)
***********************************************

Opening the PSF file ../psf/mc1_separate/005/tran.tran.tran ...

Warning from spectre during check, during IC analysis, during transient analysis `tran', during Monte Carlo analysis `mc1'.
    WARNING (CMI-2943): Parameter checks have been ignored because the valid value for parameter 'trise' could not be found in 'C1'.
    WARNING (CMI-2943): Parameter checks have been ignored because the valid value for parameter 'trise' could not be found in 'I0.R2.CM'.
    WARNING (CMI-2943): Parameter checks have been ignored because the valid value for parameter 'trise' could not be found in 'I0.R2.CS1'.
    WARNING (CMI-2943): Parameter checks have been ignored because the valid value for parameter 'trise' could not be found in 'I0.R2.CS0'.
    WARNING (CMI-2943): Parameter checks have been ignored because the valid value for parameter 'trise' could not be found in 'I0.C8<3>.C1'.
        Further occurrences of this warning will be suppressed.

Convergence achieved in 12 iterations.
DC simulation time: CPU = 2.408 ms, elapsed = 2.40803 ms.
Important parameter values:
    start = 0 s
    outputstart = 0 s
    stop = 50 s
    step = 50 ms
    maxstep = 500 ms
    ic = all
    useprevic = no
    skipdc = no
    reltol = 10e-06
    abstol(V) = 1 uV
    abstol(I) = 1 pA
    temp = 27 C
    tnom = 27 C
    tempeffects = all
    errpreset = conservative
    method = gear2only
    lteratio = 10
    relref = alllocal
    cmin = 0 F
    gmin = 1 pS
    rabsshort = 1 mOhm


Notice from spectre during transient analysis `tran', during Monte Carlo analysis `mc1'.
    Multithreading is disabled due to the size of the design being too small.


Output and IC/nodeset summary:
                 save   8       (current)
                 save   83      (voltage)

    tran: time = 1.376 s     (2.75 %), step = 153.5 ms     (307 m%)
    tran: time = 3.867 s     (7.73 %), step = 395.7 ms     (791 m%)
    tran: time = 6.746 s     (13.5 %), step = 500 ms          (1 %)
    tran: time = 9.246 s     (18.5 %), step = 500 ms          (1 %)
    tran: time = 11.75 s     (23.5 %), step = 500 ms          (1 %)
    tran: time = 14.25 s     (28.5 %), step = 500 ms          (1 %)
    tran: time = 16.75 s     (33.5 %), step = 500 ms          (1 %)
    tran: time = 19.25 s     (38.5 %), step = 500 ms          (1 %)
    tran: time = 21.75 s     (43.5 %), step = 500 ms          (1 %)
    tran: time = 24.25 s     (48.5 %), step = 500 ms          (1 %)
    tran: time = 26.75 s     (53.5 %), step = 500 ms          (1 %)
    tran: time = 29.25 s     (58.5 %), step = 500 ms          (1 %)
    tran: time = 31.75 s     (63.5 %), step = 500 ms          (1 %)
    tran: time = 34.25 s     (68.5 %), step = 500 ms          (1 %)
    tran: time = 36.75 s     (73.5 %), step = 500 ms          (1 %)
    tran: time = 39.25 s     (78.5 %), step = 500 ms          (1 %)
    tran: time = 41.75 s     (83.5 %), step = 500 ms          (1 %)
    tran: time = 44.25 s     (88.5 %), step = 500 ms          (1 %)
    tran: time = 46.75 s     (93.5 %), step = 500 ms          (1 %)
    tran: time = 49.25 s     (98.5 %), step = 500 ms          (1 %)
Number of accepted tran steps =             709

Maximum value achieved for any signal of each quantity: 
V: V(vout) = 3.3 V
I: I(V8:p) = 6.4 uA

~~~~~~~~~~~~~~~~~~~~~~~~~~~~~~~~~
Post-Transient Simulation Summary
~~~~~~~~~~~~~~~~~~~~~~~~~~~~~~~~~
   -   To further speed up simulation, consider
          add ++aps on command line
   -   Non-default settings that could significantly slow down simulation
          errpreset = conservative, default moderate
          reltol = 10e-06, default 100e-06 (conservative)
~~~~~~~~~~~~~~~~~~~~~~~~~~~~~~~~~


During simulation, the CPU load for active processors is :
         0 (7.3 %)       1 (13.8 %)      2 (27.7 %)      3 (11.0 %)
         4 (12.1 %)      5 (7.5 %)       6 (75.6 %)      7 (41.8 %)
         8 (100.0 %)     9 (20.3 %)     10 (15.1 %)     11 (11.8 %)
        12 (37.1 %)     13 (13.8 %)     14 (39.4 %)     15 (50.5 %)
        16 (69.9 %)     17 (17.3 %)     18 (24.5 %)     19 (7.4 %)
        20 (17.6 %)     21 (27.6 %)     22 (14.7 %)     23 (8.3 %)
        24 (34.9 %)     25 (100.0 %)    26 (39.4 %)     27 (8.4 %)
        28 (36.0 %)     29 (7.4 %)      30 (24.0 %)     31 (22.4 %)
        32 (9.6 %)      33 (3.6 %)      34 (3.1 %)      35 (3.8 %)
        36 (46.3 %)     37 (100.0 %)    38 (54.2 %)     39 (17.3 %)
        40 (9.0 %)      41 (21.4 %)     42 (9.0 %)      43 (6.2 %)
        44 (19.2 %)     45 (16.3 %)     46 (22.1 %)     47 (7.0 %)
        Total: 1292.8%
Initial condition solution time: CPU = 2.456 ms, elapsed = 2.45786 ms.
Intrinsic tran analysis time:    CPU = 413.712 ms, elapsed = 415.268 ms.
Total time required for tran analysis `tran': CPU = 418.66 ms, elapsed = 420.801 ms, util. = 99.5%.
Time accumulated: CPU = 3.32079 s, elapsed = 4.03125 s.
Peak resident memory used = 213 Mbytes.


Notice from spectre during transient analysis `tran', during Monte Carlo analysis `mc1'.
    34 warnings suppressed.

finalTimeOP: writing operating point information to rawfile.

Opening the PSF file ../psf/mc1_separate/005/finalTimeOP.info ...
modelParameter: writing model parameter values to rawfile.

Opening the PSF file ../psf/mc1_separate/005/modelParameter.info ...
element: writing instance parameter values to rawfile.

Opening the PSF file ../psf/mc1_separate/005/element.info ...
outputParameter: writing output parameter values to rawfile.

Opening the PSF file ../psf/mc1_separate/005/outputParameter.info ...
designParamVals: writing netlist parameters to rawfile.

Opening the PSFASCII file ../psf/mc1_separate/005/designParamVals.info ...
primitives: writing primitives to rawfile.

Opening the PSFASCII file ../psf/mc1_separate/005/primitives.info.primitives ...
subckts: writing subcircuits to rawfile.

Opening the PSFASCII file ../psf/mc1_separate/005/subckts.info.subckts ...
    mc1: iteration = 5           (16.7 %), step = 1            (4.17 %)
6  20.83% 

*****************************************************************************************
* 
* INFO: AMS_processOption = C35B4C3
* 
* INFO: Valid Modules  PIP VG5 HIRES
* 
*****************************************************************************************


Notice from spectre during Monte Carlo analysis `mc1'.
    V8: `period' has the unusually large value of 100 s.


***********************************************
Transient Analysis `tran': time = (0 s -> 50 s)
***********************************************

Opening the PSF file ../psf/mc1_separate/006/tran.tran.tran ...

Warning from spectre during check, during IC analysis, during transient analysis `tran', during Monte Carlo analysis `mc1'.
    WARNING (CMI-2943): Parameter checks have been ignored because the valid value for parameter 'trise' could not be found in 'C1'.
    WARNING (CMI-2943): Parameter checks have been ignored because the valid value for parameter 'trise' could not be found in 'I0.R2.CM'.
    WARNING (CMI-2943): Parameter checks have been ignored because the valid value for parameter 'trise' could not be found in 'I0.R2.CS1'.
    WARNING (CMI-2943): Parameter checks have been ignored because the valid value for parameter 'trise' could not be found in 'I0.R2.CS0'.
    WARNING (CMI-2943): Parameter checks have been ignored because the valid value for parameter 'trise' could not be found in 'I0.C8<3>.C1'.
        Further occurrences of this warning will be suppressed.

Convergence achieved in 12 iterations.
DC simulation time: CPU = 2.54 ms, elapsed = 2.54202 ms.
Important parameter values:
    start = 0 s
    outputstart = 0 s
    stop = 50 s
    step = 50 ms
    maxstep = 500 ms
    ic = all
    useprevic = no
    skipdc = no
    reltol = 10e-06
    abstol(V) = 1 uV
    abstol(I) = 1 pA
    temp = 27 C
    tnom = 27 C
    tempeffects = all
    errpreset = conservative
    method = gear2only
    lteratio = 10
    relref = alllocal
    cmin = 0 F
    gmin = 1 pS
    rabsshort = 1 mOhm


Notice from spectre during transient analysis `tran', during Monte Carlo analysis `mc1'.
    Multithreading is disabled due to the size of the design being too small.


Output and IC/nodeset summary:
                 save   8       (current)
                 save   83      (voltage)

    tran: time = 1.353 s     (2.71 %), step = 155.5 ms     (311 m%)
    tran: time = 3.783 s     (7.57 %), step = 361.3 ms     (723 m%)
    tran: time = 6.378 s     (12.8 %), step = 487.4 ms     (975 m%)
    tran: time = 8.878 s     (17.8 %), step = 500 ms          (1 %)
    tran: time = 11.38 s     (22.8 %), step = 500 ms          (1 %)
    tran: time = 13.88 s     (27.8 %), step = 500 ms          (1 %)
    tran: time = 16.38 s     (32.8 %), step = 500 ms          (1 %)
    tran: time = 18.88 s     (37.8 %), step = 500 ms          (1 %)
    tran: time = 21.38 s     (42.8 %), step = 500 ms          (1 %)
    tran: time = 23.88 s     (47.8 %), step = 500 ms          (1 %)
    tran: time = 26.38 s     (52.8 %), step = 500 ms          (1 %)
    tran: time = 28.88 s     (57.8 %), step = 500 ms          (1 %)
    tran: time = 31.38 s     (62.8 %), step = 500 ms          (1 %)
    tran: time = 33.88 s     (67.8 %), step = 500 ms          (1 %)
    tran: time = 36.38 s     (72.8 %), step = 500 ms          (1 %)
    tran: time = 38.88 s     (77.8 %), step = 500 ms          (1 %)
    tran: time = 41.38 s     (82.8 %), step = 500 ms          (1 %)
    tran: time = 43.88 s     (87.8 %), step = 500 ms          (1 %)
    tran: time = 46.38 s     (92.8 %), step = 500 ms          (1 %)
    tran: time = 48.88 s     (97.8 %), step = 500 ms          (1 %)
Number of accepted tran steps =             724

Maximum value achieved for any signal of each quantity: 
V: V(vout) = 3.3 V
I: I(V8:p) = 6.44 uA

~~~~~~~~~~~~~~~~~~~~~~~~~~~~~~~~~
Post-Transient Simulation Summary
~~~~~~~~~~~~~~~~~~~~~~~~~~~~~~~~~
   -   To further speed up simulation, consider
          add ++aps on command line
   -   Non-default settings that could significantly slow down simulation
          errpreset = conservative, default moderate
          reltol = 10e-06, default 100e-06 (conservative)
~~~~~~~~~~~~~~~~~~~~~~~~~~~~~~~~~


During simulation, the CPU load for active processors is :
         0 (6.7 %)       1 (23.2 %)      2 (25.0 %)      3 (10.2 %)
         4 (10.8 %)      5 (6.9 %)       6 (78.3 %)      7 (43.8 %)
         8 (100.0 %)     9 (22.1 %)     10 (16.2 %)     11 (11.4 %)
        12 (36.4 %)     13 (13.2 %)     14 (38.8 %)     15 (54.8 %)
        16 (69.8 %)     17 (20.1 %)     18 (25.9 %)     19 (10.0 %)
        20 (26.5 %)     21 (25.2 %)     22 (13.6 %)     23 (7.4 %)
        24 (31.4 %)     25 (100.0 %)    26 (35.4 %)     27 (7.7 %)
        28 (32.6 %)     29 (7.1 %)      30 (32.1 %)     31 (30.7 %)
        32 (8.8 %)      33 (13.9 %)     34 (3.2 %)      35 (3.9 %)
        36 (51.9 %)     37 (100.0 %)    38 (48.8 %)     39 (17.5 %)
        40 (8.7 %)      41 (21.0 %)     42 (10.3 %)     43 (6.7 %)
        44 (19.4 %)     45 (14.5 %)     46 (24.3 %)     47 (6.9 %)
        Total: 1332.8%
Initial condition solution time: CPU = 2.588 ms, elapsed = 2.59018 ms.
Intrinsic tran analysis time:    CPU = 420.025 ms, elapsed = 421.525 ms.
Total time required for tran analysis `tran': CPU = 425.476 ms, elapsed = 427.704 ms, util. = 99.5%.
Time accumulated: CPU = 3.79425 s, elapsed = 4.51893 s.
Peak resident memory used = 213 Mbytes.


Notice from spectre during transient analysis `tran', during Monte Carlo analysis `mc1'.
    34 warnings suppressed.

finalTimeOP: writing operating point information to rawfile.

Opening the PSF file ../psf/mc1_separate/006/finalTimeOP.info ...
modelParameter: writing model parameter values to rawfile.

Opening the PSF file ../psf/mc1_separate/006/modelParameter.info ...
element: writing instance parameter values to rawfile.

Opening the PSF file ../psf/mc1_separate/006/element.info ...
outputParameter: writing output parameter values to rawfile.

Opening the PSF file ../psf/mc1_separate/006/outputParameter.info ...
designParamVals: writing netlist parameters to rawfile.

Opening the PSFASCII file ../psf/mc1_separate/006/designParamVals.info ...
primitives: writing primitives to rawfile.

Opening the PSFASCII file ../psf/mc1_separate/006/primitives.info.primitives ...
subckts: writing subcircuits to rawfile.

Opening the PSFASCII file ../psf/mc1_separate/006/subckts.info.subckts ...
    mc1: iteration = 6           (20.8 %), step = 1            (4.17 %)
7  25.00% 

*****************************************************************************************
* 
* INFO: AMS_processOption = C35B4C3
* 
* INFO: Valid Modules  PIP VG5 HIRES
* 
*****************************************************************************************


Notice from spectre during Monte Carlo analysis `mc1'.
    V8: `period' has the unusually large value of 100 s.


***********************************************
Transient Analysis `tran': time = (0 s -> 50 s)
***********************************************

Opening the PSF file ../psf/mc1_separate/007/tran.tran.tran ...

Warning from spectre during check, during IC analysis, during transient analysis `tran', during Monte Carlo analysis `mc1'.
    WARNING (CMI-2943): Parameter checks have been ignored because the valid value for parameter 'trise' could not be found in 'C1'.
    WARNING (CMI-2943): Parameter checks have been ignored because the valid value for parameter 'trise' could not be found in 'I0.R2.CM'.
    WARNING (CMI-2943): Parameter checks have been ignored because the valid value for parameter 'trise' could not be found in 'I0.R2.CS1'.
    WARNING (CMI-2943): Parameter checks have been ignored because the valid value for parameter 'trise' could not be found in 'I0.R2.CS0'.
    WARNING (CMI-2943): Parameter checks have been ignored because the valid value for parameter 'trise' could not be found in 'I0.C8<3>.C1'.
        Further occurrences of this warning will be suppressed.

Convergence achieved in 12 iterations.
DC simulation time: CPU = 2.484 ms, elapsed = 2.51198 ms.
Important parameter values:
    start = 0 s
    outputstart = 0 s
    stop = 50 s
    step = 50 ms
    maxstep = 500 ms
    ic = all
    useprevic = no
    skipdc = no
    reltol = 10e-06
    abstol(V) = 1 uV
    abstol(I) = 1 pA
    temp = 27 C
    tnom = 27 C
    tempeffects = all
    errpreset = conservative
    method = gear2only
    lteratio = 10
    relref = alllocal
    cmin = 0 F
    gmin = 1 pS
    rabsshort = 1 mOhm


Notice from spectre during transient analysis `tran', during Monte Carlo analysis `mc1'.
    Multithreading is disabled due to the size of the design being too small.


Output and IC/nodeset summary:
                 save   8       (current)
                 save   83      (voltage)

    tran: time = 1.372 s     (2.74 %), step = 153.4 ms     (307 m%)
    tran: time = 3.852 s      (7.7 %), step = 394.7 ms     (789 m%)
    tran: time = 6.736 s     (13.5 %), step = 500 ms          (1 %)
    tran: time = 9.236 s     (18.5 %), step = 500 ms          (1 %)
    tran: time = 11.74 s     (23.5 %), step = 500 ms          (1 %)
    tran: time = 14.24 s     (28.5 %), step = 500 ms          (1 %)
    tran: time = 16.74 s     (33.5 %), step = 500 ms          (1 %)
    tran: time = 19.24 s     (38.5 %), step = 500 ms          (1 %)
    tran: time = 21.74 s     (43.5 %), step = 500 ms          (1 %)
    tran: time = 24.24 s     (48.5 %), step = 500 ms          (1 %)
    tran: time = 26.74 s     (53.5 %), step = 500 ms          (1 %)
    tran: time = 29.24 s     (58.5 %), step = 500 ms          (1 %)
    tran: time = 31.74 s     (63.5 %), step = 500 ms          (1 %)
    tran: time = 34.24 s     (68.5 %), step = 500 ms          (1 %)
    tran: time = 36.74 s     (73.5 %), step = 500 ms          (1 %)
    tran: time = 39.24 s     (78.5 %), step = 500 ms          (1 %)
    tran: time = 41.74 s     (83.5 %), step = 500 ms          (1 %)
    tran: time = 44.24 s     (88.5 %), step = 500 ms          (1 %)
    tran: time = 46.74 s     (93.5 %), step = 500 ms          (1 %)
    tran: time = 49.24 s     (98.5 %), step = 500 ms          (1 %)
Number of accepted tran steps =             700

Maximum value achieved for any signal of each quantity: 
V: V(S<0>) = 3.3 V
I: I(V8:p) = 7.224 uA
Maximum value of each quantity, excluding Verilog-A modules or dangling current sources:
V: V(vout_filt) = 3.264 V
I: I(V8:p) = 7.224 uA

~~~~~~~~~~~~~~~~~~~~~~~~~~~~~~~~~
Post-Transient Simulation Summary
~~~~~~~~~~~~~~~~~~~~~~~~~~~~~~~~~
   -   To further speed up simulation, consider
          add ++aps on command line
   -   Non-default settings that could significantly slow down simulation
          errpreset = conservative, default moderate
          reltol = 10e-06, default 100e-06 (conservative)
~~~~~~~~~~~~~~~~~~~~~~~~~~~~~~~~~


During simulation, the CPU load for active processors is :
         0 (7.1 %)       1 (22.2 %)      2 (24.8 %)      3 (9.3 %)
         4 (9.9 %)       5 (6.2 %)       6 (80.4 %)      7 (49.1 %)
         8 (100.0 %)     9 (20.2 %)     10 (15.4 %)     11 (10.3 %)
        12 (33.9 %)     13 (15.3 %)     14 (38.2 %)     15 (50.9 %)
        16 (63.7 %)     17 (18.8 %)     18 (29.1 %)     19 (18.7 %)
        20 (29.3 %)     21 (26.8 %)     22 (20.5 %)     23 (7.1 %)
        24 (29.0 %)     25 (100.0 %)    26 (36.8 %)     27 (12.3 %)
        28 (29.8 %)     29 (7.0 %)      30 (38.8 %)     31 (37.3 %)
        32 (8.6 %)      33 (16.0 %)     34 (3.3 %)      35 (3.7 %)
        36 (56.3 %)     37 (100.0 %)    38 (44.9 %)     39 (16.4 %)
        40 (8.9 %)      41 (19.6 %)     42 (11.4 %)     43 (6.4 %)
        44 (19.4 %)     45 (14.2 %)     46 (31.5 %)     47 (6.7 %)
        Total: 1365.7%
Initial condition solution time: CPU = 2.529 ms, elapsed = 2.55895 ms.
Intrinsic tran analysis time:    CPU = 405.093 ms, elapsed = 406.842 ms.
Total time required for tran analysis `tran': CPU = 410.465 ms, elapsed = 412.982 ms, util. = 99.4%.
Time accumulated: CPU = 4.24776 s, elapsed = 4.9869 s.
Peak resident memory used = 213 Mbytes.


Notice from spectre during transient analysis `tran', during Monte Carlo analysis `mc1'.
    34 warnings suppressed.

finalTimeOP: writing operating point information to rawfile.

Opening the PSF file ../psf/mc1_separate/007/finalTimeOP.info ...
modelParameter: writing model parameter values to rawfile.

Opening the PSF file ../psf/mc1_separate/007/modelParameter.info ...
element: writing instance parameter values to rawfile.

Opening the PSF file ../psf/mc1_separate/007/element.info ...
outputParameter: writing output parameter values to rawfile.

Opening the PSF file ../psf/mc1_separate/007/outputParameter.info ...
designParamVals: writing netlist parameters to rawfile.

Opening the PSFASCII file ../psf/mc1_separate/007/designParamVals.info ...
primitives: writing primitives to rawfile.

Opening the PSFASCII file ../psf/mc1_separate/007/primitives.info.primitives ...
subckts: writing subcircuits to rawfile.

Opening the PSFASCII file ../psf/mc1_separate/007/subckts.info.subckts ...
    mc1: iteration = 7             (25 %), step = 1            (4.17 %)
8  29.17% 

*****************************************************************************************
* 
* INFO: AMS_processOption = C35B4C3
* 
* INFO: Valid Modules  PIP VG5 HIRES
* 
*****************************************************************************************


Notice from spectre during Monte Carlo analysis `mc1'.
    V8: `period' has the unusually large value of 100 s.


***********************************************
Transient Analysis `tran': time = (0 s -> 50 s)
***********************************************

Opening the PSF file ../psf/mc1_separate/008/tran.tran.tran ...

Warning from spectre during check, during IC analysis, during transient analysis `tran', during Monte Carlo analysis `mc1'.
    WARNING (CMI-2943): Parameter checks have been ignored because the valid value for parameter 'trise' could not be found in 'C1'.
    WARNING (CMI-2943): Parameter checks have been ignored because the valid value for parameter 'trise' could not be found in 'I0.R2.CM'.
    WARNING (CMI-2943): Parameter checks have been ignored because the valid value for parameter 'trise' could not be found in 'I0.R2.CS1'.
    WARNING (CMI-2943): Parameter checks have been ignored because the valid value for parameter 'trise' could not be found in 'I0.R2.CS0'.
    WARNING (CMI-2943): Parameter checks have been ignored because the valid value for parameter 'trise' could not be found in 'I0.C8<3>.C1'.
        Further occurrences of this warning will be suppressed.

Convergence achieved in 12 iterations.
DC simulation time: CPU = 2.41 ms, elapsed = 2.40993 ms.
Important parameter values:
    start = 0 s
    outputstart = 0 s
    stop = 50 s
    step = 50 ms
    maxstep = 500 ms
    ic = all
    useprevic = no
    skipdc = no
    reltol = 10e-06
    abstol(V) = 1 uV
    abstol(I) = 1 pA
    temp = 27 C
    tnom = 27 C
    tempeffects = all
    errpreset = conservative
    method = gear2only
    lteratio = 10
    relref = alllocal
    cmin = 0 F
    gmin = 1 pS
    rabsshort = 1 mOhm


Notice from spectre during transient analysis `tran', during Monte Carlo analysis `mc1'.
    Multithreading is disabled due to the size of the design being too small.


Output and IC/nodeset summary:
                 save   8       (current)
                 save   83      (voltage)

    tran: time = 1.354 s     (2.71 %), step = 148.5 ms     (297 m%)
    tran: time = 4.151 s      (8.3 %), step = 416.3 ms     (833 m%)
    tran: time = 6.593 s     (13.2 %), step = 500 ms          (1 %)
    tran: time = 9.093 s     (18.2 %), step = 500 ms          (1 %)
    tran: time = 11.59 s     (23.2 %), step = 500 ms          (1 %)
    tran: time = 14.09 s     (28.2 %), step = 500 ms          (1 %)
    tran: time = 16.59 s     (33.2 %), step = 500 ms          (1 %)
    tran: time = 19.09 s     (38.2 %), step = 500 ms          (1 %)
    tran: time = 21.59 s     (43.2 %), step = 500 ms          (1 %)
    tran: time = 24.09 s     (48.2 %), step = 500 ms          (1 %)
    tran: time = 26.59 s     (53.2 %), step = 500 ms          (1 %)
    tran: time = 29.09 s     (58.2 %), step = 500 ms          (1 %)
    tran: time = 31.59 s     (63.2 %), step = 500 ms          (1 %)
    tran: time = 34.09 s     (68.2 %), step = 500 ms          (1 %)
    tran: time = 36.59 s     (73.2 %), step = 500 ms          (1 %)
    tran: time = 39.09 s     (78.2 %), step = 500 ms          (1 %)
    tran: time = 41.59 s     (83.2 %), step = 500 ms          (1 %)
    tran: time = 44.09 s     (88.2 %), step = 500 ms          (1 %)
    tran: time = 46.59 s     (93.2 %), step = 500 ms          (1 %)
    tran: time = 49.09 s     (98.2 %), step = 500 ms          (1 %)
Number of accepted tran steps =             694

Maximum value achieved for any signal of each quantity: 
V: V(S<0>) = 3.3 V
I: I(V8:p) = 7.474 uA
Maximum value of each quantity, excluding Verilog-A modules or dangling current sources:
V: V(vout_filt) = 3.159 V
I: I(V8:p) = 7.474 uA

~~~~~~~~~~~~~~~~~~~~~~~~~~~~~~~~~
Post-Transient Simulation Summary
~~~~~~~~~~~~~~~~~~~~~~~~~~~~~~~~~
   -   To further speed up simulation, consider
          add ++aps on command line
   -   Non-default settings that could significantly slow down simulation
          errpreset = conservative, default moderate
          reltol = 10e-06, default 100e-06 (conservative)
~~~~~~~~~~~~~~~~~~~~~~~~~~~~~~~~~


During simulation, the CPU load for active processors is :
         0 (7.3 %)       1 (20.7 %)      2 (23.0 %)      3 (9.0 %)
         4 (9.3 %)       5 (5.9 %)       6 (82.1 %)      7 (51.6 %)
         8 (100.0 %)     9 (20.3 %)     10 (14.7 %)     11 (14.5 %)
        12 (31.6 %)     13 (14.3 %)     14 (43.5 %)     15 (47.1 %)
        16 (58.3 %)     17 (17.4 %)     18 (31.9 %)     19 (20.2 %)
        20 (34.7 %)     21 (29.5 %)     22 (19.1 %)     23 (11.8 %)
        24 (27.7 %)     25 (100.0 %)    26 (35.5 %)     27 (12.0 %)
        28 (27.6 %)     29 (7.3 %)      30 (43.9 %)     31 (42.5 %)
        32 (8.4 %)      33 (14.8 %)     34 (3.2 %)      35 (3.8 %)
        36 (59.7 %)     37 (100.0 %)    38 (41.8 %)     39 (16.2 %)
        40 (8.5 %)      41 (19.5 %)     42 (11.0 %)     43 (6.8 %)
        44 (19.6 %)     45 (13.1 %)     46 (36.0 %)     47 (6.6 %)
        Total: 1383.3%
Initial condition solution time: CPU = 2.453 ms, elapsed = 2.455 ms.
Intrinsic tran analysis time:    CPU = 400.928 ms, elapsed = 402.465 ms.
Total time required for tran analysis `tran': CPU = 406.055 ms, elapsed = 408.183 ms, util. = 99.5%.
Time accumulated: CPU = 4.6976 s, elapsed = 5.45096 s.
Peak resident memory used = 213 Mbytes.


Notice from spectre during transient analysis `tran', during Monte Carlo analysis `mc1'.
    34 warnings suppressed.

finalTimeOP: writing operating point information to rawfile.

Opening the PSF file ../psf/mc1_separate/008/finalTimeOP.info ...
modelParameter: writing model parameter values to rawfile.

Opening the PSF file ../psf/mc1_separate/008/modelParameter.info ...
element: writing instance parameter values to rawfile.

Opening the PSF file ../psf/mc1_separate/008/element.info ...
outputParameter: writing output parameter values to rawfile.

Opening the PSF file ../psf/mc1_separate/008/outputParameter.info ...
designParamVals: writing netlist parameters to rawfile.

Opening the PSFASCII file ../psf/mc1_separate/008/designParamVals.info ...
primitives: writing primitives to rawfile.

Opening the PSFASCII file ../psf/mc1_separate/008/primitives.info.primitives ...
subckts: writing subcircuits to rawfile.

Opening the PSFASCII file ../psf/mc1_separate/008/subckts.info.subckts ...
    mc1: iteration = 8           (29.2 %), step = 1            (4.17 %)
9  33.33% 

*****************************************************************************************
* 
* INFO: AMS_processOption = C35B4C3
* 
* INFO: Valid Modules  PIP VG5 HIRES
* 
*****************************************************************************************


Notice from spectre during Monte Carlo analysis `mc1'.
    V8: `period' has the unusually large value of 100 s.


***********************************************
Transient Analysis `tran': time = (0 s -> 50 s)
***********************************************

Opening the PSF file ../psf/mc1_separate/009/tran.tran.tran ...

Warning from spectre during check, during IC analysis, during transient analysis `tran', during Monte Carlo analysis `mc1'.
    WARNING (CMI-2943): Parameter checks have been ignored because the valid value for parameter 'trise' could not be found in 'C1'.
    WARNING (CMI-2943): Parameter checks have been ignored because the valid value for parameter 'trise' could not be found in 'I0.R2.CM'.
    WARNING (CMI-2943): Parameter checks have been ignored because the valid value for parameter 'trise' could not be found in 'I0.R2.CS1'.
    WARNING (CMI-2943): Parameter checks have been ignored because the valid value for parameter 'trise' could not be found in 'I0.R2.CS0'.
    WARNING (CMI-2943): Parameter checks have been ignored because the valid value for parameter 'trise' could not be found in 'I0.C8<3>.C1'.
        Further occurrences of this warning will be suppressed.

Convergence achieved in 12 iterations.
DC simulation time: CPU = 2.418 ms, elapsed = 2.4178 ms.
Important parameter values:
    start = 0 s
    outputstart = 0 s
    stop = 50 s
    step = 50 ms
    maxstep = 500 ms
    ic = all
    useprevic = no
    skipdc = no
    reltol = 10e-06
    abstol(V) = 1 uV
    abstol(I) = 1 pA
    temp = 27 C
    tnom = 27 C
    tempeffects = all
    errpreset = conservative
    method = gear2only
    lteratio = 10
    relref = alllocal
    cmin = 0 F
    gmin = 1 pS
    rabsshort = 1 mOhm


Notice from spectre during transient analysis `tran', during Monte Carlo analysis `mc1'.
    Multithreading is disabled due to the size of the design being too small.


Output and IC/nodeset summary:
                 save   8       (current)
                 save   83      (voltage)

    tran: time = 1.326 s     (2.65 %), step = 149.3 ms     (299 m%)
    tran: time = 4.107 s     (8.21 %), step = 392.9 ms     (786 m%)
    tran: time = 6.422 s     (12.8 %), step = 500 ms          (1 %)
    tran: time = 8.922 s     (17.8 %), step = 500 ms          (1 %)
    tran: time = 11.42 s     (22.8 %), step = 500 ms          (1 %)
    tran: time = 13.92 s     (27.8 %), step = 500 ms          (1 %)
    tran: time = 16.42 s     (32.8 %), step = 500 ms          (1 %)
    tran: time = 18.92 s     (37.8 %), step = 500 ms          (1 %)
    tran: time = 21.42 s     (42.8 %), step = 500 ms          (1 %)
    tran: time = 23.92 s     (47.8 %), step = 500 ms          (1 %)
    tran: time = 26.42 s     (52.8 %), step = 500 ms          (1 %)
    tran: time = 28.92 s     (57.8 %), step = 500 ms          (1 %)
    tran: time = 31.42 s     (62.8 %), step = 500 ms          (1 %)
    tran: time = 33.92 s     (67.8 %), step = 500 ms          (1 %)
    tran: time = 36.42 s     (72.8 %), step = 500 ms          (1 %)
    tran: time = 38.92 s     (77.8 %), step = 500 ms          (1 %)
    tran: time = 41.42 s     (82.8 %), step = 500 ms          (1 %)
    tran: time = 43.92 s     (87.8 %), step = 500 ms          (1 %)
    tran: time = 46.42 s     (92.8 %), step = 500 ms          (1 %)
    tran: time = 48.92 s     (97.8 %), step = 500 ms          (1 %)
Number of accepted tran steps =             711

Maximum value achieved for any signal of each quantity: 
V: V(vout) = 3.3 V
I: I(V8:p) = 6.232 uA

~~~~~~~~~~~~~~~~~~~~~~~~~~~~~~~~~
Post-Transient Simulation Summary
~~~~~~~~~~~~~~~~~~~~~~~~~~~~~~~~~
   -   To further speed up simulation, consider
          add ++aps on command line
   -   Non-default settings that could significantly slow down simulation
          errpreset = conservative, default moderate
          reltol = 10e-06, default 100e-06 (conservative)
~~~~~~~~~~~~~~~~~~~~~~~~~~~~~~~~~


During simulation, the CPU load for active processors is :
         0 (7.0 %)       1 (19.4 %)      2 (21.3 %)      3 (11.4 %)
         4 (9.4 %)       5 (5.6 %)       6 (83.5 %)      7 (47.8 %)
         8 (100.0 %)     9 (26.7 %)     10 (13.9 %)     11 (13.5 %)
        12 (29.7 %)     13 (14.2 %)     14 (47.6 %)     15 (44.4 %)
        16 (54.1 %)     17 (16.2 %)     18 (31.8 %)     19 (24.4 %)
        20 (39.9 %)     21 (31.8 %)     22 (17.9 %)     23 (18.9 %)
        24 (25.5 %)     25 (100.0 %)    26 (32.8 %)     27 (11.6 %)
        28 (25.4 %)     29 (6.8 %)      30 (48.4 %)     31 (39.2 %)
        32 (15.4 %)     33 (13.7 %)     34 (3.2 %)      35 (3.5 %)
        36 (62.6 %)     37 (100.0 %)    38 (39.9 %)     39 (15.9 %)
        40 (8.0 %)      41 (19.1 %)     42 (10.4 %)     43 (6.3 %)
        44 (24.4 %)     45 (13.5 %)     46 (35.4 %)     47 (6.3 %)
        Total: 1397.4%
Initial condition solution time: CPU = 2.458 ms, elapsed = 2.45976 ms.
Intrinsic tran analysis time:    CPU = 409.46 ms, elapsed = 411.419 ms.
Total time required for tran analysis `tran': CPU = 414.218 ms, elapsed = 416.726 ms, util. = 99.4%.
Time accumulated: CPU = 5.15462 s, elapsed = 5.92219 s.
Peak resident memory used = 213 Mbytes.


Notice from spectre during transient analysis `tran', during Monte Carlo analysis `mc1'.
    34 warnings suppressed.

finalTimeOP: writing operating point information to rawfile.

Opening the PSF file ../psf/mc1_separate/009/finalTimeOP.info ...
modelParameter: writing model parameter values to rawfile.

Opening the PSF file ../psf/mc1_separate/009/modelParameter.info ...
element: writing instance parameter values to rawfile.

Opening the PSF file ../psf/mc1_separate/009/element.info ...
outputParameter: writing output parameter values to rawfile.

Opening the PSF file ../psf/mc1_separate/009/outputParameter.info ...
designParamVals: writing netlist parameters to rawfile.

Opening the PSFASCII file ../psf/mc1_separate/009/designParamVals.info ...
primitives: writing primitives to rawfile.

Opening the PSFASCII file ../psf/mc1_separate/009/primitives.info.primitives ...
subckts: writing subcircuits to rawfile.

Opening the PSFASCII file ../psf/mc1_separate/009/subckts.info.subckts ...
    mc1: iteration = 9           (33.3 %), step = 1            (4.17 %)
10  37.50% 

*****************************************************************************************
* 
* INFO: AMS_processOption = C35B4C3
* 
* INFO: Valid Modules  PIP VG5 HIRES
* 
*****************************************************************************************


Notice from spectre during Monte Carlo analysis `mc1'.
    V8: `period' has the unusually large value of 100 s.


***********************************************
Transient Analysis `tran': time = (0 s -> 50 s)
***********************************************

Opening the PSF file ../psf/mc1_separate/010/tran.tran.tran ...

Warning from spectre during check, during IC analysis, during transient analysis `tran', during Monte Carlo analysis `mc1'.
    WARNING (CMI-2943): Parameter checks have been ignored because the valid value for parameter 'trise' could not be found in 'C1'.
    WARNING (CMI-2943): Parameter checks have been ignored because the valid value for parameter 'trise' could not be found in 'I0.R2.CM'.
    WARNING (CMI-2943): Parameter checks have been ignored because the valid value for parameter 'trise' could not be found in 'I0.R2.CS1'.
    WARNING (CMI-2943): Parameter checks have been ignored because the valid value for parameter 'trise' could not be found in 'I0.R2.CS0'.
    WARNING (CMI-2943): Parameter checks have been ignored because the valid value for parameter 'trise' could not be found in 'I0.C8<3>.C1'.
        Further occurrences of this warning will be suppressed.

Convergence achieved in 12 iterations.
DC simulation time: CPU = 2.505 ms, elapsed = 2.50602 ms.
Important parameter values:
    start = 0 s
    outputstart = 0 s
    stop = 50 s
    step = 50 ms
    maxstep = 500 ms
    ic = all
    useprevic = no
    skipdc = no
    reltol = 10e-06
    abstol(V) = 1 uV
    abstol(I) = 1 pA
    temp = 27 C
    tnom = 27 C
    tempeffects = all
    errpreset = conservative
    method = gear2only
    lteratio = 10
    relref = alllocal
    cmin = 0 F
    gmin = 1 pS
    rabsshort = 1 mOhm


Notice from spectre during transient analysis `tran', during Monte Carlo analysis `mc1'.
    Multithreading is disabled due to the size of the design being too small.


Output and IC/nodeset summary:
                 save   8       (current)
                 save   83      (voltage)

[...]
    WARNING (CMI-2943): Parameter checks have been ignored because the valid value for parameter 'trise' could not be found in 'C1'.
    WARNING (CMI-2943): Parameter checks have been ignored because the valid value for parameter 'trise' could not be found in 'I0.R2.CM'.
    WARNING (CMI-2943): Parameter checks have been ignored because the valid value for parameter 'trise' could not be found in 'I0.R2.CS1'.
    WARNING (CMI-2943): Parameter checks have been ignored because the valid value for parameter 'trise' could not be found in 'I0.R2.CS0'.
    WARNING (CMI-2943): Parameter checks have been ignored because the valid value for parameter 'trise' could not be found in 'I0.C8<3>.C1'.
        Further occurrences of this warning will be suppressed.

Convergence achieved in 12 iterations.
DC simulation time: CPU = 2.505 ms, elapsed = 2.51889 ms.
Important parameter values:
    start = 0 s
    outputstart = 0 s
    stop = 50 s
    step = 50 ms
    maxstep = 500 ms
    ic = all
    useprevic = no
    skipdc = no
    reltol = 10e-06
    abstol(V) = 1 uV
    abstol(I) = 1 pA
    temp = 27 C
    tnom = 27 C
    tempeffects = all
    errpreset = conservative
    method = gear2only
    lteratio = 10
    relref = alllocal
    cmin = 0 F
    gmin = 1 pS
    rabsshort = 1 mOhm


Notice from spectre during transient analysis `tran', during Monte Carlo analysis `mc1'.
    Multithreading is disabled due to the size of the design being too small.


Output and IC/nodeset summary:
                 save   8       (current)
                 save   83      (voltage)

    tran: time = 1.292 s     (2.58 %), step = 142.8 ms     (286 m%)
    tran: time = 4.024 s     (8.05 %), step = 410.7 ms     (821 m%)
    tran: time = 6.456 s     (12.9 %), step = 500 ms          (1 %)
    tran: time = 8.956 s     (17.9 %), step = 500 ms          (1 %)
    tran: time = 11.46 s     (22.9 %), step = 500 ms          (1 %)
    tran: time = 13.96 s     (27.9 %), step = 500 ms          (1 %)
    tran: time = 16.46 s     (32.9 %), step = 500 ms          (1 %)
    tran: time = 18.96 s     (37.9 %), step = 500 ms          (1 %)
    tran: time = 21.46 s     (42.9 %), step = 500 ms          (1 %)
    tran: time = 23.96 s     (47.9 %), step = 500 ms          (1 %)
    tran: time = 26.46 s     (52.9 %), step = 500 ms          (1 %)
    tran: time = 28.96 s     (57.9 %), step = 500 ms          (1 %)
    tran: time = 31.46 s     (62.9 %), step = 500 ms          (1 %)
    tran: time = 33.96 s     (67.9 %), step = 500 ms          (1 %)
    tran: time = 36.46 s     (72.9 %), step = 500 ms          (1 %)
    tran: time = 38.96 s     (77.9 %), step = 500 ms          (1 %)
    tran: time = 41.46 s     (82.9 %), step = 500 ms          (1 %)
    tran: time = 43.96 s     (87.9 %), step = 500 ms          (1 %)
    tran: time = 46.46 s     (92.9 %), step = 500 ms          (1 %)
    tran: time = 48.96 s     (97.9 %), step = 500 ms          (1 %)
Number of accepted tran steps =             695

Maximum value achieved for any signal of each quantity: 
V: V(S<0>) = 3.3 V
I: I(V8:p) = 7.169 uA
Maximum value of each quantity, excluding Verilog-A modules or dangling current sources:
V: V(vout_filt) = 3.227 V
I: I(V8:p) = 7.169 uA

~~~~~~~~~~~~~~~~~~~~~~~~~~~~~~~~~
Post-Transient Simulation Summary
~~~~~~~~~~~~~~~~~~~~~~~~~~~~~~~~~
   -   To further speed up simulation, consider
          add ++aps on command line
   -   Non-default settings that could significantly slow down simulation
          errpreset = conservative, default moderate
          reltol = 10e-06, default 100e-06 (conservative)
~~~~~~~~~~~~~~~~~~~~~~~~~~~~~~~~~


During simulation, the CPU load for active processors is :
         0 (7.7 %)       1 (17.0 %)      2 (14.9 %)      3 (18.0 %)
         4 (16.5 %)      5 (10.1 %)      6 (56.8 %)      7 (31.7 %)
         8 (97.4 %)      9 (37.1 %)     10 (44.6 %)     11 (16.7 %)
        12 (20.2 %)     13 (18.1 %)     14 (55.2 %)     15 (30.7 %)
        16 (39.8 %)     17 (26.8 %)     18 (35.3 %)     19 (30.9 %)
        20 (45.5 %)     21 (24.0 %)     22 (27.5 %)     23 (33.1 %)
        24 (21.3 %)     25 (76.7 %)     26 (18.0 %)     27 (7.4 %)
        28 (14.0 %)     29 (5.4 %)      30 (62.2 %)     31 (28.3 %)
        32 (17.1 %)     33 (23.5 %)     34 (27.7 %)     35 (35.1 %)
        36 (45.3 %)     37 (100.0 %)    38 (33.8 %)     39 (23.1 %)
        40 (8.2 %)      41 (15.8 %)     42 (28.9 %)     43 (7.7 %)
        44 (30.3 %)     45 (15.6 %)     46 (29.4 %)     47 (21.3 %)
        Total: 1451.5%
Initial condition solution time: CPU = 2.564 ms, elapsed = 2.57921 ms.
Intrinsic tran analysis time:    CPU = 402.139 ms, elapsed = 403.572 ms.
Total time required for tran analysis `tran': CPU = 407.258 ms, elapsed = 409.269 ms, util. = 99.5%.
Time accumulated: CPU = 11.5534 s, elapsed = 12.5141 s.
Peak resident memory used = 213 Mbytes.


Notice from spectre during transient analysis `tran', during Monte Carlo analysis `mc1'.
    34 warnings suppressed.

finalTimeOP: writing operating point information to rawfile.

Opening the PSF file ../psf/mc1_separate/023/finalTimeOP.info ...
modelParameter: writing model parameter values to rawfile.

Opening the PSF file ../psf/mc1_separate/023/modelParameter.info ...
element: writing instance parameter values to rawfile.

Opening the PSF file ../psf/mc1_separate/023/element.info ...
outputParameter: writing output parameter values to rawfile.

Opening the PSF file ../psf/mc1_separate/023/outputParameter.info ...
designParamVals: writing netlist parameters to rawfile.

Opening the PSFASCII file ../psf/mc1_separate/023/designParamVals.info ...
primitives: writing primitives to rawfile.

Opening the PSFASCII file ../psf/mc1_separate/023/primitives.info.primitives ...
subckts: writing subcircuits to rawfile.

Opening the PSFASCII file ../psf/mc1_separate/023/subckts.info.subckts ...
    mc1: iteration = 23          (91.7 %), step = 1            (4.17 %)
24  95.83% 

*****************************************************************************************
* 
* INFO: AMS_processOption = C35B4C3
* 
* INFO: Valid Modules  PIP VG5 HIRES
* 
*****************************************************************************************


Notice from spectre during Monte Carlo analysis `mc1'.
    V8: `period' has the unusually large value of 100 s.


***********************************************
Transient Analysis `tran': time = (0 s -> 50 s)
***********************************************

Opening the PSF file ../psf/mc1_separate/024/tran.tran.tran ...

Warning from spectre during check, during IC analysis, during transient analysis `tran', during Monte Carlo analysis `mc1'.
    WARNING (CMI-2943): Parameter checks have been ignored because the valid value for parameter 'trise' could not be found in 'C1'.
    WARNING (CMI-2943): Parameter checks have been ignored because the valid value for parameter 'trise' could not be found in 'I0.R2.CM'.
    WARNING (CMI-2943): Parameter checks have been ignored because the valid value for parameter 'trise' could not be found in 'I0.R2.CS1'.
    WARNING (CMI-2943): Parameter checks have been ignored because the valid value for parameter 'trise' could not be found in 'I0.R2.CS0'.
    WARNING (CMI-2943): Parameter checks have been ignored because the valid value for parameter 'trise' could not be found in 'I0.C8<3>.C1'.
        Further occurrences of this warning will be suppressed.

Convergence achieved in 12 iterations.
DC simulation time: CPU = 2.554 ms, elapsed = 2.55609 ms.
Important parameter values:
    start = 0 s
    outputstart = 0 s
    stop = 50 s
    step = 50 ms
    maxstep = 500 ms
    ic = all
    useprevic = no
    skipdc = no
    reltol = 10e-06
    abstol(V) = 1 uV
    abstol(I) = 1 pA
    temp = 27 C
    tnom = 27 C
    tempeffects = all
    errpreset = conservative
    method = gear2only
    lteratio = 10
    relref = alllocal
    cmin = 0 F
    gmin = 1 pS
    rabsshort = 1 mOhm


Notice from spectre during transient analysis `tran', during Monte Carlo analysis `mc1'.
    Multithreading is disabled due to the size of the design being too small.


Output and IC/nodeset summary:
                 save   8       (current)
                 save   83      (voltage)

    tran: time = 1.343 s     (2.69 %), step = 150.9 ms     (302 m%)
    tran: time = 3.806 s     (7.61 %), step = 394.3 ms     (789 m%)
    tran: time = 6.696 s     (13.4 %), step = 500 ms          (1 %)
    tran: time = 9.196 s     (18.4 %), step = 500 ms          (1 %)
    tran: time = 11.7 s      (23.4 %), step = 500 ms          (1 %)
    tran: time = 14.2 s      (28.4 %), step = 500 ms          (1 %)
    tran: time = 16.7 s      (33.4 %), step = 500 ms          (1 %)
    tran: time = 19.2 s      (38.4 %), step = 500 ms          (1 %)
    tran: time = 21.7 s      (43.4 %), step = 500 ms          (1 %)
    tran: time = 24.2 s      (48.4 %), step = 500 ms          (1 %)
    tran: time = 26.7 s      (53.4 %), step = 500 ms          (1 %)
    tran: time = 29.2 s      (58.4 %), step = 500 ms          (1 %)
    tran: time = 31.7 s      (63.4 %), step = 500 ms          (1 %)
    tran: time = 34.2 s      (68.4 %), step = 500 ms          (1 %)
    tran: time = 36.7 s      (73.4 %), step = 500 ms          (1 %)
    tran: time = 39.2 s      (78.4 %), step = 500 ms          (1 %)
    tran: time = 41.7 s      (83.4 %), step = 500 ms          (1 %)
    tran: time = 44.2 s      (88.4 %), step = 500 ms          (1 %)
    tran: time = 46.7 s      (93.4 %), step = 500 ms          (1 %)
    tran: time = 49.2 s      (98.4 %), step = 500 ms          (1 %)
Number of accepted tran steps =             697

Maximum value achieved for any signal of each quantity: 
V: V(S<0>) = 3.3 V
I: I(V8:p) = 7.355 uA
Maximum value of each quantity, excluding Verilog-A modules or dangling current sources:
V: V(vout_filt) = 3.247 V
I: I(V8:p) = 7.355 uA

~~~~~~~~~~~~~~~~~~~~~~~~~~~~~~~~~
Post-Transient Simulation Summary
~~~~~~~~~~~~~~~~~~~~~~~~~~~~~~~~~
   -   To further speed up simulation, consider
          add ++aps on command line
   -   Non-default settings that could significantly slow down simulation
          errpreset = conservative, default moderate
          reltol = 10e-06, default 100e-06 (conservative)
~~~~~~~~~~~~~~~~~~~~~~~~~~~~~~~~~


During simulation, the CPU load for active processors is :
         0 (7.6 %)       1 (16.9 %)      2 (14.4 %)      3 (17.5 %)
         4 (16.1 %)      5 (9.9 %)       6 (55.2 %)      7 (30.8 %)
         8 (97.4 %)      9 (39.1 %)     10 (46.6 %)     11 (16.2 %)
        12 (19.8 %)     13 (18.0 %)     14 (56.8 %)     15 (29.8 %)
        16 (38.8 %)     17 (27.9 %)     18 (34.1 %)     19 (30.0 %)
        20 (43.9 %)     21 (23.2 %)     22 (26.9 %)     23 (32.2 %)
        24 (21.1 %)     25 (77.3 %)     26 (17.6 %)     27 (7.2 %)
        28 (13.6 %)     29 (5.3 %)      30 (60.1 %)     31 (27.6 %)
        32 (16.5 %)     33 (26.3 %)     34 (26.9 %)     35 (37.5 %)
        36 (46.4 %)     37 (100.0 %)    38 (34.7 %)     39 (23.0 %)
        40 (8.1 %)      41 (15.3 %)     42 (28.1 %)     43 (7.4 %)
        44 (31.0 %)     45 (15.8 %)     46 (31.6 %)     47 (20.6 %)
        Total: 1448.2%
Initial condition solution time: CPU = 2.6 ms, elapsed = 2.60186 ms.
Intrinsic tran analysis time:    CPU = 405.764 ms, elapsed = 407.394 ms.
Total time required for tran analysis `tran': CPU = 410.905 ms, elapsed = 413.17 ms, util. = 99.5%.
Time accumulated: CPU = 12.0095 s, elapsed = 12.9848 s.
Peak resident memory used = 213 Mbytes.


Notice from spectre during transient analysis `tran', during Monte Carlo analysis `mc1'.
    34 warnings suppressed.

finalTimeOP: writing operating point information to rawfile.

Opening the PSF file ../psf/mc1_separate/024/finalTimeOP.info ...
modelParameter: writing model parameter values to rawfile.

Opening the PSF file ../psf/mc1_separate/024/modelParameter.info ...
element: writing instance parameter values to rawfile.

Opening the PSF file ../psf/mc1_separate/024/element.info ...
outputParameter: writing output parameter values to rawfile.

Opening the PSF file ../psf/mc1_separate/024/outputParameter.info ...
designParamVals: writing netlist parameters to rawfile.

Opening the PSFASCII file ../psf/mc1_separate/024/designParamVals.info ...
primitives: writing primitives to rawfile.

Opening the PSFASCII file ../psf/mc1_separate/024/primitives.info.primitives ...
subckts: writing subcircuits to rawfile.

Opening the PSFASCII file ../psf/mc1_separate/024/subckts.info.subckts ...
    mc1: iteration = 24          (95.8 %), step = 1            (4.17 %)
25 100.00% 

*****************************************************************************************
* 
* INFO: AMS_processOption = C35B4C3
* 
* INFO: Valid Modules  PIP VG5 HIRES
* 
*****************************************************************************************


Notice from spectre during Monte Carlo analysis `mc1'.
    V8: `period' has the unusually large value of 100 s.


***********************************************
Transient Analysis `tran': time = (0 s -> 50 s)
***********************************************

Opening the PSF file ../psf/mc1_separate/025/tran.tran.tran ...

Warning from spectre during check, during IC analysis, during transient analysis `tran', during Monte Carlo analysis `mc1'.
    WARNING (CMI-2943): Parameter checks have been ignored because the valid value for parameter 'trise' could not be found in 'C1'.
    WARNING (CMI-2943): Parameter checks have been ignored because the valid value for parameter 'trise' could not be found in 'I0.R2.CM'.
    WARNING (CMI-2943): Parameter checks have been ignored because the valid value for parameter 'trise' could not be found in 'I0.R2.CS1'.
    WARNING (CMI-2943): Parameter checks have been ignored because the valid value for parameter 'trise' could not be found in 'I0.R2.CS0'.
    WARNING (CMI-2943): Parameter checks have been ignored because the valid value for parameter 'trise' could not be found in 'I0.C8<3>.C1'.
        Further occurrences of this warning will be suppressed.

Convergence achieved in 12 iterations.
DC simulation time: CPU = 2.511 ms, elapsed = 2.51198 ms.
Important parameter values:
    start = 0 s
    outputstart = 0 s
    stop = 50 s
    step = 50 ms
    maxstep = 500 ms
    ic = all
    useprevic = no
    skipdc = no
    reltol = 10e-06
    abstol(V) = 1 uV
    abstol(I) = 1 pA
    temp = 27 C
    tnom = 27 C
    tempeffects = all
    errpreset = conservative
    method = gear2only
    lteratio = 10
    relref = alllocal
    cmin = 0 F
    gmin = 1 pS
    rabsshort = 1 mOhm


Notice from spectre during transient analysis `tran', during Monte Carlo analysis `mc1'.
    Multithreading is disabled due to the size of the design being too small.


Output and IC/nodeset summary:
                 save   8       (current)
                 save   83      (voltage)

    tran: time = 1.356 s     (2.71 %), step = 152.2 ms     (304 m%)
    tran: time = 3.803 s     (7.61 %), step = 380.6 ms     (761 m%)
    tran: time = 6.588 s     (13.2 %), step = 500 ms          (1 %)
    tran: time = 9.088 s     (18.2 %), step = 500 ms          (1 %)
    tran: time = 11.59 s     (23.2 %), step = 500 ms          (1 %)
    tran: time = 14.09 s     (28.2 %), step = 500 ms          (1 %)
    tran: time = 16.59 s     (33.2 %), step = 500 ms          (1 %)
    tran: time = 19.09 s     (38.2 %), step = 500 ms          (1 %)
    tran: time = 21.59 s     (43.2 %), step = 500 ms          (1 %)
    tran: time = 24.09 s     (48.2 %), step = 500 ms          (1 %)
    tran: time = 26.59 s     (53.2 %), step = 500 ms          (1 %)
    tran: time = 29.09 s     (58.2 %), step = 500 ms          (1 %)
    tran: time = 31.59 s     (63.2 %), step = 500 ms          (1 %)
    tran: time = 34.09 s     (68.2 %), step = 500 ms          (1 %)
    tran: time = 36.59 s     (73.2 %), step = 500 ms          (1 %)
    tran: time = 39.09 s     (78.2 %), step = 500 ms          (1 %)
    tran: time = 41.59 s     (83.2 %), step = 500 ms          (1 %)
    tran: time = 44.09 s     (88.2 %), step = 500 ms          (1 %)
    tran: time = 46.59 s     (93.2 %), step = 500 ms          (1 %)
    tran: time = 49.09 s     (98.2 %), step = 500 ms          (1 %)
Number of accepted tran steps =             712

Maximum value achieved for any signal of each quantity: 
V: V(vout) = 3.3 V
I: I(V8:p) = 6.57 uA

~~~~~~~~~~~~~~~~~~~~~~~~~~~~~~~~~
Post-Transient Simulation Summary
~~~~~~~~~~~~~~~~~~~~~~~~~~~~~~~~~
   -   To further speed up simulation, consider
          add ++aps on command line
   -   Non-default settings that could significantly slow down simulation
          errpreset = conservative, default moderate
          reltol = 10e-06, default 100e-06 (conservative)
~~~~~~~~~~~~~~~~~~~~~~~~~~~~~~~~~


During simulation, the CPU load for active processors is :
         0 (7.6 %)       1 (16.5 %)      2 (14.1 %)      3 (17.0 %)
         4 (15.9 %)      5 (9.7 %)       6 (53.9 %)      7 (32.2 %)
         8 (97.2 %)      9 (39.1 %)     10 (48.6 %)     11 (15.8 %)
        12 (19.5 %)     13 (18.0 %)     14 (56.1 %)     15 (28.8 %)
        16 (37.5 %)     17 (26.9 %)     18 (33.1 %)     19 (29.0 %)
        20 (42.5 %)     21 (22.5 %)     22 (26.2 %)     23 (31.1 %)
        24 (20.5 %)     25 (78.0 %)     26 (17.0 %)     27 (7.1 %)
        28 (13.2 %)     29 (5.3 %)      30 (58.2 %)     31 (26.6 %)
        32 (16.0 %)     33 (29.0 %)     34 (26.0 %)     35 (39.7 %)
        36 (45.7 %)     37 (100.0 %)    38 (36.8 %)     39 (22.3 %)
        40 (8.4 %)      41 (14.8 %)     42 (27.2 %)     43 (7.3 %)
        44 (30.0 %)     45 (15.4 %)     46 (33.2 %)     47 (20.5 %)
        Total: 1436.9%
Initial condition solution time: CPU = 2.56 ms, elapsed = 2.56181 ms.
Intrinsic tran analysis time:    CPU = 416.376 ms, elapsed = 417.837 ms.
Total time required for tran analysis `tran': CPU = 421.322 ms, elapsed = 423.218 ms, util. = 99.6%.
Time accumulated: CPU = 12.4749 s, elapsed = 13.4642 s.
Peak resident memory used = 213 Mbytes.


Notice from spectre during transient analysis `tran', during Monte Carlo analysis `mc1'.
    34 warnings suppressed.

finalTimeOP: writing operating point information to rawfile.

Opening the PSF file ../psf/mc1_separate/025/finalTimeOP.info ...
modelParameter: writing model parameter values to rawfile.

Opening the PSF file ../psf/mc1_separate/025/modelParameter.info ...
element: writing instance parameter values to rawfile.

Opening the PSF file ../psf/mc1_separate/025/element.info ...
outputParameter: writing output parameter values to rawfile.

Opening the PSF file ../psf/mc1_separate/025/outputParameter.info ...
designParamVals: writing netlist parameters to rawfile.

Opening the PSFASCII file ../psf/mc1_separate/025/designParamVals.info ...
primitives: writing primitives to rawfile.

Opening the PSFASCII file ../psf/mc1_separate/025/primitives.info.primitives ...
subckts: writing subcircuits to rawfile.

Opening the PSFASCII file ../psf/mc1_separate/025/subckts.info.subckts ...
    mc1: iteration = 25           (100 %), step = 1            (4.17 %)
Total time required for montecarlo analysis `mc1': CPU = 12.0175 s, elapsed = 12.3853 s, util. = 97%.
Time accumulated: CPU = 12.5024 s, elapsed = 13.5059 s.
Peak resident memory used = 213 Mbytes.

Licensing Information:
Lic Summary:
[09:47:40.440824] Cdslmd servers:3000@lic08.ug.kth.se:29000@lic06.ug.kth.se
[09:47:40.440864] Feature usage summary:
[09:47:40.440865] Virtuoso_Multi_mode_Simulation


Aggregate audit (9:47:40 AM, Thur Apr 16, 2026):
Time used: CPU = 12.5 s, elapsed = 13.5 s, util. = 92.6%.
Time spent in licensing: elapsed = 179 ms.
Peak memory used = 214 Mbytes.
Simulation started at: 9:47:26 AM, Thur Apr 16, 2026, ended at: 9:47:40 AM, Thur Apr 16, 2026, with elapsed time (wall clock): 13.5 s.
spectre completes with 0 errors, 147 warnings, and 85 notices.
