
Spectre (R) Circuit Simulator
Version 24.1.0.288.isr5 64bit -- 3 Apr 2025
Copyright (C) 1989-2025 Cadence Design Systems, Inc. All rights reserved worldwide. Cadence and Spectre are registered trademarks of Cadence Design Systems, Inc. All others are the property of their respective holders.

Includes RSA BSAFE(R) Cryptographic or Security Protocol Software from RSA Security, Inc.

User: davidevi   Host: il2244vt26_davidevi   HostID: 11AC2C00   PID: 1021696
Memory  available: 3.0316 TB  physical: 3.2467 TB
Linux   : Rocky Linux release 8.10 (Green Obsidian)
CPU Type: Intel(R) Xeon(R) CPU E7-8857 v2 @ 3.00GHz
        Socket: Processors [Frequency]
        0:       0 [2999.9],  1 [2999.9],  2 [1200.0],  3 [1200.0],  4 [3600.0]
                 5 [1200.0],  6 [1200.0],  7 [3000.0],  8 [1200.0],  9 [1200.0]
                10 [1200.0], 11 [3400.0]
        1:      12 [2700.0], 13 [1200.0], 14 [1200.0], 15 [1200.0], 16 [1200.0]
                17 [3600.0], 18 [2900.0], 19 [3600.0], 20 [2600.0], 21 [3400.1]
                22 [1200.0], 23 [3399.9]
        2:      24 [1200.0], 25 [1200.0], 26 [2999.9], 27 [2700.0], 28 [2999.9]
                29 [1200.0], 30 [1200.0], 31 [1200.0], 32 [1200.0], 33 [1200.0]
                34 [1200.0], 35 [1200.0]
        3:      36 [2999.9], 37 [1200.0], 38 [1200.0], 39 [1200.0], 40 [1200.0]
                41 [2800.0], 42 [1200.0], 43 [1200.0], 44 [1200.0], 45 [2900.0]
                46 [2999.9], 47 [1200.0]
        
System load averages (1min, 5min, 15min) : 24.8 %, 22.6 %, 24.0 %
HPC is enabled


Simulating `input.scs' on il2244vt26_davidevi at 4:47:58 PM, Wed Apr 15, 2026 (process id: 1021696).
Current working directory: /home/davidevi/Desktop/myproject/Sim/VGA/VGA_1_wakeup_tb/adexl/results/data/MonteCarlo.0/5/wakeup/groupRunDataDir/netlist
Command line:
    /opt/tools/cadence/installs/SPECTRE241/tools/bin/spectre -64  \
        input.scs +escchars +log ../psf/spectre.out -format psfbin  \
        +rtsf -raw ../psf +aps +mt +lqtimeout 900 -maxw 5 -maxn 5  \
        +param /opt/pdk/ams/410/spectre/ams_range.lmts -env ade  \
        -ahdllibdir  \
        /home/davidevi/Desktop/myproject/Sim/VGA/VGA_1_wakeup_tb/adexl/results/data/MonteCarlo.0/sharedData/Job458/ahdl/input.ahdlSimDB  \
        +logstatus  \
        +adespetkn=0001089D13A302B663E41FB550AF0DF415A679A322D5069144BF588C12F604E07EF416DC01A319B562BB63D35EF418BD45A3569324D00DA95CAC63F248CB4F925EE279D15D9175FF34986BDD0AF002BA50FD7FD707E002A700AC1C821CFF42E20EAF79D118F874D3349879D118F874D33498100ED9C5B5EE5D47000036C1

Simulation Id: lnERGvh4yzkrpYjz
Licensing Information:
[16:47:58.121850] Configured Lic search path (24.01-s002): 3000@lic08.ug.kth.se:29000@lic06.ug.kth.se

Licensing Information:
[16:47:58.384387] Periodic Lic check successful

Loading /opt/tools/cadence/installs/SPECTRE241/tools.lnx86/cmi/lib/64bit/5.0/libinfineon_sh.so ...
Loading /opt/tools/cadence/installs/SPECTRE241/tools.lnx86/cmi/lib/64bit/5.0/libphilips_I_sh.so ...
Loading /opt/tools/cadence/installs/SPECTRE241/tools.lnx86/cmi/lib/64bit/5.0/libphilips_sh.so ...
Loading /opt/tools/cadence/installs/SPECTRE241/tools.lnx86/cmi/lib/64bit/5.0/libsparam_sh.so ...
Loading /opt/tools/cadence/installs/SPECTRE241/tools.lnx86/cmi/lib/64bit/5.0/libstmodels_sh.so ...

Warning from spectre.
    WARNING (SPECTRE-691): This CPU processor does not support x86 advanced vector extensions instructions. This may affect math operations and slow down the simulation.

Reading file:  /home/davidevi/Desktop/myproject/Sim/VGA/VGA_1_wakeup_tb/adexl/results/data/MonteCarlo.0/5/wakeup/groupRunDataDir/netlist/input.scs
Reading file:  /opt/pdk/ams/410/spectre/ams_range.lmts

Warning from spectre during read of parameter soft limits file `/opt/pdk/ams/410/spectre/ams_range.lmts', during circuit read-in.
    WARNING (SPECTRE-8360): line 1511: `ac' is an undefined primitive device.
    WARNING (SPECTRE-8360): line 1512: `ac' is an undefined primitive device.
    WARNING (SPECTRE-8360): line 1513: `ac' is an undefined primitive device.
    WARNING (SPECTRE-8360): line 1514: `ac' is an undefined primitive device.
    WARNING (SPECTRE-8360): line 1515: `ac' is an undefined primitive device.
        Further occurrences of this warning will be suppressed.

Reading file:  /opt/tools/cadence/installs/SPECTRE241/tools.lnx86/spectre/etc/configs/spectre.cfg
Reading file:  /opt/pdk/ams/410/spectre/c35/soac/soac.scs
Reading file:  /opt/pdk/ams/410/spectre/c35/soac/processOption.scs
Reading file:  /opt/pdk/ams/410/spectre/c35/soac/process.scs
Reading file:  /opt/pdk/ams/410/spectre/c35/soac/soac.va

Warning from spectre during AHDL read-in.
    WARNING (VACOMP-2435): The environment variable CDS_AHDLCMI_ENABLE is no longer supported. Therefore, the simulator will use the default compiled C code flow.

Reading link:  /opt/tools/cadence/installs/SPECTRE241/tools.lnx86/spectre/etc/ahdl/constants.h
Reading file:  /opt/tools/cadence/installs/SPECTRE241/tools.lnx86/spectre/etc/ahdl/constants.vams
Reading link:  /opt/tools/cadence/installs/SPECTRE241/tools.lnx86/spectre/etc/ahdl/discipline.h
Reading file:  /opt/tools/cadence/installs/SPECTRE241/tools.lnx86/spectre/etc/ahdl/disciplines.vams
Reading file:  /opt/pdk/ams/410/spectre/c35/processOption/C35B4C3.scs
Reading file:  /opt/pdk/ams/410/spectre/c35/soac/cmos53.scs
Reading file:  /opt/pdk/ams/410/spectre/c35/soac/res.scs
Reading file:  /opt/pdk/ams/410/spectre/c35/soac/cap.scs
Reading file:  /opt/pdk/ams/410/spectre/c35/soac/bip.scs
Reading file:  /opt/pdk/ams/410/spectre/c35/soac/ind.scs
Reading file:  /opt/pdk/ams/410/spectre/c35/soac/esddiode.scs
Time for NDB Parsing: CPU = 153.579 ms, elapsed = 319.265 ms.
Time accumulated: CPU = 367.371 ms, elapsed = 319.268 ms.
Peak resident memory used = 175 Mbytes.

Existing shared object for module modn_ahdl is up to date.
Installed compiled interface for modn_ahdl.
Existing shared object for module modp_ahdl is up to date.
Installed compiled interface for modp_ahdl.
Existing shared object for module cpoly_ahdl is up to date.
Installed compiled interface for cpoly_ahdl.
Existing shared object for module rpolyh_ahdl is up to date.
Installed compiled interface for rpolyh_ahdl.
Existing shared object for module bsource_19b458 is up to date.
Installed compiled interface for bsource_19b458.
Time for Elaboration: CPU = 53.186 ms, elapsed = 55.9828 ms.
Time accumulated: CPU = 420.712 ms, elapsed = 375.404 ms.
Peak resident memory used = 188 Mbytes.


Notice from spectre during hierarchy flattening.
    The value 'psf' specified for the 'checklimitdest' option will no longer be supported in future releases. Use 'spectre -h' to see other recommended values for the 'checklimitdest' option.


*****************************************************************************************
* 
* INFO: AMS_processOption = C35B4C3
* 
* INFO: Valid Modules  PIP VG5 HIRES
* 
*****************************************************************************************


Notice from spectre during hierarchy flattening.
    V8: `period' has the unusually large value of 100 s.


Time for EDB Visiting: CPU = 7.859 ms, elapsed = 7.8721 ms.
Time accumulated: CPU = 428.699 ms, elapsed = 383.403 ms.
Peak resident memory used = 191 Mbytes.

Loading /opt/tools/cadence/installs/SPECTRE241/tools.lnx86/mdl/lib/64bit/libSpectreEH_sh.so ...

Warning from spectre during initial setup.
    WARNING (SPECTRE-16460): SOAC_cvarm_vspsub:Specified subcircuit master `cvarm' was not found.
    WARNING (SPECTRE-16462): SOAC_cvarm_vspsub:Error in specification of subcircuit master. Assert is ignored.
    WARNING (SPECTRE-16460): SOAC_cvarm_vbs:Specified subcircuit master `cvarm' was not found.
    WARNING (SPECTRE-16462): SOAC_cvarm_vbs:Error in specification of subcircuit master. Assert is ignored.
    WARNING (SPECTRE-16460): SOAC_cvarm_vgb:Specified subcircuit master `cvarm' was not found.
    WARNING (SPECTRE-16462): SOAC_cvarm_vgb:Error in specification of subcircuit master. Assert is ignored.
    WARNING (SPECTRE-16460): SOAC_cvart_vspsub:Specified subcircuit master `cvart' was not found.
    WARNING (SPECTRE-16462): SOAC_cvart_vspsub:Error in specification of subcircuit master. Assert is ignored.
    WARNING (SPECTRE-16460): SOAC_cvart_vbs:Specified subcircuit master `cvart' was not found.
        Further occurrences of this warning will be suppressed.
    WARNING (SPECTRE-16462): SOAC_cvart_vbs:Error in specification of subcircuit master. Assert is ignored.
        Further occurrences of this warning will be suppressed.
Notice from spectre during topology check.
    Only one connection to the following 54 nodes:
        I0.MN6.psub!
        I0.MN5.psub!
        I0.MN4.psub!
        I0.MN3.psub!
        I0.MN2.psub!
        Further occurrences of this notice will be suppressed.
Notice from spectre during initial setup.
    Multithreading is disabled due to the size of the design being too small.


Netlist title:
        // Point Netlist Generated on: Apr 15 16:47:57 2026


Global user options:
         psfversion = 1.4.0
            vabstol = 1e-06
            iabstol = 1e-12
               temp = 85
           homotopy = 5
              limit = delta
         compatible = spice2
               gmin = 1e-12
             rforce = 1
           maxnotes = 5
           maxwarns = 5
             digits = 5
               cols = 80
             pivrel = 0.001
           sensfile = ../psf/sens.output
     checklimitdest = psf
     enable_pre_ver = yes
      ignorezerovar = yes
               save = allpub
             reltol = 0.0001
               tnom = 27
             scalem = 1
              scale = 1

Scoped user options:

Circuit inventory:
              nodes 88
            bsim3v3 35    
     bsource_19b458 2     
          capacitor 38    
         cpoly_ahdl 17    
            isource 1     
          modn_ahdl 19    
          modp_ahdl 16    
           resistor 1     
        rpolyh_ahdl 2     
            vsource 8     

Analysis and control statement inventory:
               info 7     
         montecarlo 1     
               tran 1     

Output statements:
             .probe 0     
           .measure 0     
               save 0     

Design checks inventory:
          paramtest 55    
             assert 175   


Notice from spectre during initial setup.
    APS enabled.
    1 notice suppressed.
    72 warnings suppressed.

Time for parsing: CPU = 16.944 ms, elapsed = 583.404 ms.
Time accumulated: CPU = 445.745 ms, elapsed = 966.908 ms.
Peak resident memory used = 198 Mbytes.

~~~~~~~~~~~~~~~~~~~~~~
Pre-Simulation Summary
~~~~~~~~~~~~~~~~~~~~~~
   -   (APS) Multi-threading. The recommended number of threads is 1, consider adding +mt=1 on command line.
~~~~~~~~~~~~~~~~~~~~~~

**************************************************
Monte Carlo Analysis `mc1': iteration = (1 -> 100)
**************************************************
Important parameter values:
    seed = 12345
    sampling = lds
    variations = all
    firstrun = 1
    numruns = 100
    nullmfactorcorrelation = no
    donominal = yes
    method = standard

**** Performing nominal run for `mc1'

Notice from spectre during transient analysis `tran', during Monte Carlo analysis `mc1'.
    No checklimit analysis defined for asserts. A default checklimit analysis 'SpectreChecklimitAnal' has been created with all asserts enabled.


***********************************************
Transient Analysis `tran': time = (0 s -> 50 s)
***********************************************

Warning from spectre during check, during IC analysis, during transient analysis `tran', during Monte Carlo analysis `mc1'.
    WARNING (CMI-2943): Parameter checks have been ignored because the valid value for parameter 'trise' could not be found in 'C1'.
    WARNING (CMI-2943): Parameter checks have been ignored because the valid value for parameter 'trise' could not be found in 'I0.R2.CM'.
    WARNING (CMI-2943): Parameter checks have been ignored because the valid value for parameter 'trise' could not be found in 'I0.R2.CS1'.
    WARNING (CMI-2943): Parameter checks have been ignored because the valid value for parameter 'trise' could not be found in 'I0.R2.CS0'.
    WARNING (CMI-2943): Parameter checks have been ignored because the valid value for parameter 'trise' could not be found in 'I0.C3.C1'.
        Further occurrences of this warning will be suppressed.

Convergence achieved in 12 iterations.
DC simulation time: CPU = 2.984 ms, elapsed = 3.08299 ms.

Opening the PSF file ../psf/nom/tran.tran.tran ...
Important parameter values:
    start = 0 s
    outputstart = 0 s
    stop = 50 s
    step = 50 ms
    maxstep = 500 ms
    ic = all
    useprevic = no
    skipdc = no
    reltol = 10e-06
    abstol(V) = 1 uV
    abstol(I) = 1 pA
    temp = 85 C
    tnom = 27 C
    tempeffects = all
    errpreset = conservative
    method = gear2only
    lteratio = 10
    relref = alllocal
    cmin = 0 F
    gmin = 1 pS
    rabsshort = 1 mOhm


Notice from spectre during transient analysis `tran', during Monte Carlo analysis `mc1'.
    Multithreading is disabled due to the size of the design being too small.


Output and IC/nodeset summary:
                 save   8       (current)
                 save   87      (voltage)

    tran: time = 1.704 s     (3.41 %), step = 500 ms          (1 %)
    tran: time = 4.204 s     (8.41 %), step = 500 ms          (1 %)
    tran: time = 6.704 s     (13.4 %), step = 500 ms          (1 %)
    tran: time = 9.204 s     (18.4 %), step = 500 ms          (1 %)
    tran: time = 11.7 s      (23.4 %), step = 500 ms          (1 %)
    tran: time = 14.2 s      (28.4 %), step = 500 ms          (1 %)
    tran: time = 16.7 s      (33.4 %), step = 500 ms          (1 %)
    tran: time = 19.2 s      (38.4 %), step = 500 ms          (1 %)
    tran: time = 21.7 s      (43.4 %), step = 500 ms          (1 %)
    tran: time = 24.2 s      (48.4 %), step = 500 ms          (1 %)
    tran: time = 26.7 s      (53.4 %), step = 500 ms          (1 %)
    tran: time = 29.2 s      (58.4 %), step = 500 ms          (1 %)
    tran: time = 31.7 s      (63.4 %), step = 500 ms          (1 %)
    tran: time = 34.2 s      (68.4 %), step = 500 ms          (1 %)
    tran: time = 36.7 s      (73.4 %), step = 500 ms          (1 %)
    tran: time = 39.2 s      (78.4 %), step = 500 ms          (1 %)
    tran: time = 41.7 s      (83.4 %), step = 500 ms          (1 %)
    tran: time = 44.2 s      (88.4 %), step = 500 ms          (1 %)
    tran: time = 46.7 s      (93.4 %), step = 500 ms          (1 %)
    tran: time = 49.2 s      (98.4 %), step = 500 ms          (1 %)
Number of accepted tran steps =             679

Maximum value achieved for any signal of each quantity: 
V: V(S<0>) = 3.3 V
I: I(V8:p) = 7.277 uA
Maximum value of each quantity, excluding Verilog-A modules or dangling current sources:
V: V(vout_filt) = 3.17 V
I: I(V8:p) = 7.277 uA

~~~~~~~~~~~~~~~~~~~~~~~~~~~~~~~~~
Post-Transient Simulation Summary
~~~~~~~~~~~~~~~~~~~~~~~~~~~~~~~~~
   -   To further speed up simulation, consider
          add ++aps on command line
   -   Non-default settings that could significantly slow down simulation
          errpreset = conservative, default moderate
          reltol = 10e-06, default 100e-06 (conservative)
~~~~~~~~~~~~~~~~~~~~~~~~~~~~~~~~~


During simulation, the CPU load for active processors is :
         0 (30.4 %)      1 (31.7 %)      2 (29.6 %)      3 (4.1 %)
         4 (18.1 %)      5 (29.4 %)      6 (8.7 %)       7 (10.2 %)
         8 (4.7 %)       9 (35.4 %)     10 (5.5 %)      11 (2.4 %)
        12 (46.7 %)     13 (12.6 %)     14 (4.7 %)      15 (7.1 %)
        16 (3.1 %)      17 (28.7 %)     18 (11.8 %)     19 (2.4 %)
        20 (3.1 %)      21 (8.6 %)      22 (4.0 %)      23 (100.0 %)
        24 (61.2 %)     25 (28.3 %)     26 (17.2 %)     27 (7.1 %)
        28 (99.2 %)     29 (7.0 %)      30 (2.3 %)      31 (1.6 %)
        32 (3.9 %)      33 (1.6 %)      34 (3.8 %)      35 (1.6 %)
        36 (92.3 %)     37 (7.1 %)      38 (12.6 %)     39 (7.8 %)
        40 (19.7 %)     41 (10.9 %)     42 (7.9 %)      43 (2.4 %)
        44 (5.4 %)      45 (2.4 %)      46 (100.0 %)    47 (3.9 %)
        Total: 950.3%
Initial condition solution time: CPU = 3.04 ms, elapsed = 3.13997 ms.
Intrinsic tran analysis time:    CPU = 362.704 ms, elapsed = 374.283 ms.
Total time required for tran analysis `tran': CPU = 440.129 ms, elapsed = 456.003 ms, util. = 96.5%.
Time accumulated: CPU = 910.782 ms, elapsed = 1.4498 s.
Peak resident memory used = 210 Mbytes.


Notice from spectre during transient analysis `tran', during Monte Carlo analysis `mc1'.
    34 warnings suppressed.

finalTimeOP: writing operating point information to rawfile.

Opening the PSF file ../psf/nom/finalTimeOP.info ...
modelParameter: writing model parameter values to rawfile.

Opening the PSF file ../psf/nom/modelParameter.info ...
element: writing instance parameter values to rawfile.

Opening the PSF file ../psf/nom/element.info ...
outputParameter: writing output parameter values to rawfile.

Opening the PSF file ../psf/nom/outputParameter.info ...
designParamVals: writing netlist parameters to rawfile.

Opening the PSFASCII file ../psf/nom/designParamVals.info ...
primitives: writing primitives to rawfile.

Opening the PSFASCII file ../psf/nom/primitives.info.primitives ...
subckts: writing subcircuits to rawfile.

Opening the PSFASCII file ../psf/nom/subckts.info.subckts ...
Opening iteration number and data-directory mapping file:  /home/davidevi/Desktop/myproject/Sim/VGA/VGA_1_wakeup_tb/adexl/results/data/MonteCarlo.0/5/wakeup/groupRunDataDir/netlist/../psf/mc1.mapping

Statistical parameters:
    Defined process parameters: 629
    Defined mismatch parameters (subckt based): 86
    Non-referenced mismatch parameters: 80
    Number of random variables: 718
    Gaussian truncation for process parameters: 4.00 sigma
    Gaussian truncation for mismatch parameters: 4.00 sigma


Opening the PSF file ../psf/mc1_tran.montecarlo ...

Opening the PSF file ../psf/mc1_finalTimeOP.montecarlo ...

Opening the PSF file ../psf/mc1_modelParameter.montecarlo ...

Opening the PSF file ../psf/mc1_element.montecarlo ...

Opening the PSF file ../psf/mc1_outputParameter.montecarlo ...

Opening the PSF file ../psf/mc1_designParamVals.montecarlo ...

Opening the PSF file ../psf/mc1_primitives.montecarlo ...

Opening the PSF file ../psf/mc1_subckts.montecarlo ...

**** Performing monte carlo loop for `mc1'

1   0.00% 

*****************************************************************************************
* 
* INFO: AMS_processOption = C35B4C3
* 
* INFO: Valid Modules  PIP VG5 HIRES
* 
*****************************************************************************************


Notice from spectre at iteration = 1 during Monte Carlo analysis `mc1'.
    V8: `period' has the unusually large value of 100 s.


***********************************************
Transient Analysis `tran': time = (0 s -> 50 s)
***********************************************

Opening the PSF file ../psf/mc1_separate/001/tran.tran.tran ...

Warning from spectre at iteration = 1 during check, during IC analysis, during transient analysis `tran', during Monte Carlo analysis `mc1'.
    WARNING (CMI-2943): Parameter checks have been ignored because the valid value for parameter 'trise' could not be found in 'C1'.
    WARNING (CMI-2943): Parameter checks have been ignored because the valid value for parameter 'trise' could not be found in 'I0.R2.CM'.
    WARNING (CMI-2943): Parameter checks have been ignored because the valid value for parameter 'trise' could not be found in 'I0.R2.CS1'.
    WARNING (CMI-2943): Parameter checks have been ignored because the valid value for parameter 'trise' could not be found in 'I0.R2.CS0'.
    WARNING (CMI-2943): Parameter checks have been ignored because the valid value for parameter 'trise' could not be found in 'I0.C3.C1'.
        Further occurrences of this warning will be suppressed.

Convergence achieved in 12 iterations.
DC simulation time: CPU = 2.461 ms, elapsed = 2.46119 ms.
Important parameter values:
    start = 0 s
    outputstart = 0 s
    stop = 50 s
    step = 50 ms
    maxstep = 500 ms
    ic = all
    useprevic = no
    skipdc = no
    reltol = 10e-06
    abstol(V) = 1 uV
    abstol(I) = 1 pA
    temp = 85 C
    tnom = 27 C
    tempeffects = all
    errpreset = conservative
    method = gear2only
    lteratio = 10
    relref = alllocal
    cmin = 0 F
    gmin = 1 pS
    rabsshort = 1 mOhm


Notice from spectre at iteration = 1 during transient analysis `tran', during Monte Carlo analysis `mc1'.
    Multithreading is disabled due to the size of the design being too small.


Output and IC/nodeset summary:
                 save   8       (current)
                 save   87      (voltage)

    tran: time = 1.361 s     (2.72 %), step = 500 ms          (1 %)
    tran: time = 3.861 s     (7.72 %), step = 500 ms          (1 %)
    tran: time = 6.361 s     (12.7 %), step = 500 ms          (1 %)
    tran: time = 8.861 s     (17.7 %), step = 500 ms          (1 %)
    tran: time = 11.36 s     (22.7 %), step = 500 ms          (1 %)
    tran: time = 13.86 s     (27.7 %), step = 500 ms          (1 %)
    tran: time = 16.36 s     (32.7 %), step = 500 ms          (1 %)
    tran: time = 18.86 s     (37.7 %), step = 500 ms          (1 %)
    tran: time = 21.36 s     (42.7 %), step = 500 ms          (1 %)
    tran: time = 23.86 s     (47.7 %), step = 500 ms          (1 %)
    tran: time = 26.36 s     (52.7 %), step = 500 ms          (1 %)
    tran: time = 28.86 s     (57.7 %), step = 500 ms          (1 %)
    tran: time = 31.36 s     (62.7 %), step = 500 ms          (1 %)
    tran: time = 33.86 s     (67.7 %), step = 500 ms          (1 %)
    tran: time = 36.36 s     (72.7 %), step = 500 ms          (1 %)
    tran: time = 38.86 s     (77.7 %), step = 500 ms          (1 %)
    tran: time = 41.36 s     (82.7 %), step = 500 ms          (1 %)
    tran: time = 43.86 s     (87.7 %), step = 500 ms          (1 %)
    tran: time = 46.36 s     (92.7 %), step = 500 ms          (1 %)
    tran: time = 48.86 s     (97.7 %), step = 500 ms          (1 %)
Number of accepted tran steps =             684

Maximum value achieved for any signal of each quantity: 
V: V(S<0>) = 3.3 V
I: I(V8:p) = 7.207 uA
Maximum value of each quantity, excluding Verilog-A modules or dangling current sources:
V: V(vout_filt) = 3.211 V
I: I(V8:p) = 7.207 uA

~~~~~~~~~~~~~~~~~~~~~~~~~~~~~~~~~
Post-Transient Simulation Summary
~~~~~~~~~~~~~~~~~~~~~~~~~~~~~~~~~
   -   To further speed up simulation, consider
          add ++aps on command line
   -   Non-default settings that could significantly slow down simulation
          errpreset = conservative, default moderate
          reltol = 10e-06, default 100e-06 (conservative)
~~~~~~~~~~~~~~~~~~~~~~~~~~~~~~~~~


During simulation, the CPU load for active processors is :
         0 (28.5 %)      1 (33.0 %)      2 (25.1 %)      3 (5.1 %)
         4 (16.4 %)      5 (24.4 %)      6 (8.8 %)       7 (13.7 %)
         8 (5.5 %)       9 (54.3 %)     10 (9.3 %)      11 (2.2 %)
        12 (41.5 %)     13 (12.7 %)     14 (4.4 %)      15 (6.1 %)
        16 (4.4 %)      17 (24.6 %)     18 (31.1 %)     19 (3.3 %)
        20 (3.3 %)      21 (6.1 %)      22 (3.4 %)      23 (100.0 %)
        24 (44.2 %)     25 (49.7 %)     26 (16.4 %)     27 (7.7 %)
        28 (99.5 %)     29 (7.1 %)      30 (3.8 %)      31 (3.3 %)
        32 (4.9 %)      33 (2.7 %)      34 (3.3 %)      35 (4.3 %)
        36 (72.4 %)     37 (12.2 %)     38 (28.3 %)     39 (6.6 %)
        40 (18.6 %)     41 (14.8 %)     42 (6.6 %)      43 (3.3 %)
        44 (4.3 %)      45 (3.3 %)      46 (100.0 %)    47 (3.9 %)
        Total: 988.7%
Initial condition solution time: CPU = 2.512 ms, elapsed = 2.51412 ms.
Intrinsic tran analysis time:    CPU = 370.019 ms, elapsed = 371.303 ms.
Total time required for tran analysis `tran': CPU = 375.125 ms, elapsed = 376.895 ms, util. = 99.5%.
Time accumulated: CPU = 1.35372 s, elapsed = 1.90818 s.
Peak resident memory used = 213 Mbytes.


Notice from spectre during transient analysis `tran', during Monte Carlo analysis `mc1'.
    34 warnings suppressed.

finalTimeOP: writing operating point information to rawfile.

Opening the PSF file ../psf/mc1_separate/001/finalTimeOP.info ...
modelParameter: writing model parameter values to rawfile.

Opening the PSF file ../psf/mc1_separate/001/modelParameter.info ...
element: writing instance parameter values to rawfile.

Opening the PSF file ../psf/mc1_separate/001/element.info ...
outputParameter: writing output parameter values to rawfile.

Opening the PSF file ../psf/mc1_separate/001/outputParameter.info ...
designParamVals: writing netlist parameters to rawfile.

Opening the PSFASCII file ../psf/mc1_separate/001/designParamVals.info ...
primitives: writing primitives to rawfile.

Opening the PSFASCII file ../psf/mc1_separate/001/primitives.info.primitives ...
subckts: writing subcircuits to rawfile.

Opening the PSFASCII file ../psf/mc1_separate/001/subckts.info.subckts ...
2   1.01% 

*****************************************************************************************
* 
* INFO: AMS_processOption = C35B4C3
* 
* INFO: Valid Modules  PIP VG5 HIRES
* 
*****************************************************************************************


Notice from spectre during Monte Carlo analysis `mc1'.
    V8: `period' has the unusually large value of 100 s.


***********************************************
Transient Analysis `tran': time = (0 s -> 50 s)
***********************************************

Opening the PSF file ../psf/mc1_separate/002/tran.tran.tran ...

Warning from spectre during check, during IC analysis, during transient analysis `tran', during Monte Carlo analysis `mc1'.
    WARNING (CMI-2943): Parameter checks have been ignored because the valid value for parameter 'trise' could not be found in 'C1'.
    WARNING (CMI-2943): Parameter checks have been ignored because the valid value for parameter 'trise' could not be found in 'I0.R2.CM'.
    WARNING (CMI-2943): Parameter checks have been ignored because the valid value for parameter 'trise' could not be found in 'I0.R2.CS1'.
    WARNING (CMI-2943): Parameter checks have been ignored because the valid value for parameter 'trise' could not be found in 'I0.R2.CS0'.
    WARNING (CMI-2943): Parameter checks have been ignored because the valid value for parameter 'trise' could not be found in 'I0.C3.C1'.
        Further occurrences of this warning will be suppressed.

Convergence achieved in 12 iterations.
DC simulation time: CPU = 2.367 ms, elapsed = 2.36797 ms.
Important parameter values:
    start = 0 s
    outputstart = 0 s
    stop = 50 s
    step = 50 ms
    maxstep = 500 ms
    ic = all
    useprevic = no
    skipdc = no
    reltol = 10e-06
    abstol(V) = 1 uV
    abstol(I) = 1 pA
    temp = 85 C
    tnom = 27 C
    tempeffects = all
    errpreset = conservative
    method = gear2only
    lteratio = 10
    relref = alllocal
    cmin = 0 F
    gmin = 1 pS
    rabsshort = 1 mOhm


Notice from spectre during transient analysis `tran', during Monte Carlo analysis `mc1'.
    Multithreading is disabled due to the size of the design being too small.


Output and IC/nodeset summary:
                 save   8       (current)
                 save   87      (voltage)

    tran: time = 1.488 s     (2.98 %), step = 500 ms          (1 %)
    tran: time = 3.988 s     (7.98 %), step = 500 ms          (1 %)
    tran: time = 6.488 s       (13 %), step = 500 ms          (1 %)
    tran: time = 8.988 s       (18 %), step = 500 ms          (1 %)
    tran: time = 11.49 s       (23 %), step = 500 ms          (1 %)
    tran: time = 13.99 s       (28 %), step = 500 ms          (1 %)
    tran: time = 16.49 s       (33 %), step = 500 ms          (1 %)
    tran: time = 18.99 s       (38 %), step = 500 ms          (1 %)
    tran: time = 21.49 s       (43 %), step = 500 ms          (1 %)
    tran: time = 23.99 s       (48 %), step = 500 ms          (1 %)
    tran: time = 26.49 s       (53 %), step = 500 ms          (1 %)
    tran: time = 28.99 s       (58 %), step = 500 ms          (1 %)
    tran: time = 31.49 s       (63 %), step = 500 ms          (1 %)
    tran: time = 33.99 s       (68 %), step = 500 ms          (1 %)
    tran: time = 36.49 s       (73 %), step = 500 ms          (1 %)
    tran: time = 38.99 s       (78 %), step = 500 ms          (1 %)
    tran: time = 41.49 s       (83 %), step = 500 ms          (1 %)
    tran: time = 43.99 s       (88 %), step = 500 ms          (1 %)
    tran: time = 46.49 s       (93 %), step = 500 ms          (1 %)
    tran: time = 48.99 s       (98 %), step = 500 ms          (1 %)
Number of accepted tran steps =             681

Maximum value achieved for any signal of each quantity: 
V: V(S<0>) = 3.3 V
I: I(V8:p) = 7.219 uA
Maximum value of each quantity, excluding Verilog-A modules or dangling current sources:
V: V(vout_filt) = 3.197 V
I: I(V8:p) = 7.219 uA

~~~~~~~~~~~~~~~~~~~~~~~~~~~~~~~~~
Post-Transient Simulation Summary
~~~~~~~~~~~~~~~~~~~~~~~~~~~~~~~~~
   -   To further speed up simulation, consider
          add ++aps on command line
   -   Non-default settings that could significantly slow down simulation
          errpreset = conservative, default moderate
          reltol = 10e-06, default 100e-06 (conservative)
~~~~~~~~~~~~~~~~~~~~~~~~~~~~~~~~~


During simulation, the CPU load for active processors is :
         0 (25.9 %)      1 (27.9 %)      2 (22.1 %)      3 (12.7 %)
         4 (15.9 %)      5 (26.7 %)      6 (9.8 %)       7 (17.0 %)
         8 (6.8 %)       9 (49.3 %)     10 (10.7 %)     11 (3.6 %)
        12 (36.7 %)     13 (11.3 %)     14 (4.9 %)      15 (6.3 %)
        16 (20.3 %)     17 (21.0 %)     18 (28.0 %)     19 (3.6 %)
        20 (9.7 %)      21 (8.0 %)      22 (3.6 %)      23 (100.0 %)
        24 (38.2 %)     25 (51.5 %)     26 (19.6 %)     27 (6.7 %)
        28 (99.6 %)     29 (6.7 %)      30 (4.4 %)      31 (4.5 %)
        32 (4.5 %)      33 (2.2 %)      34 (4.0 %)      35 (6.6 %)
        36 (77.2 %)     37 (12.7 %)     38 (23.8 %)     39 (9.3 %)
        40 (16.1 %)     41 (15.6 %)     42 (5.8 %)      43 (5.3 %)
        44 (4.0 %)      45 (3.2 %)      46 (100.0 %)    47 (5.4 %)
        Total: 1008.6%
Initial condition solution time: CPU = 2.439 ms, elapsed = 2.44021 ms.
Intrinsic tran analysis time:    CPU = 369.704 ms, elapsed = 370.904 ms.
Total time required for tran analysis `tran': CPU = 374.598 ms, elapsed = 376.428 ms, util. = 99.5%.
Time accumulated: CPU = 1.7706 s, elapsed = 2.33727 s.
Peak resident memory used = 214 Mbytes.


Notice from spectre during transient analysis `tran', during Monte Carlo analysis `mc1'.
    34 warnings suppressed.

finalTimeOP: writing operating point information to rawfile.

Opening the PSF file ../psf/mc1_separate/002/finalTimeOP.info ...
modelParameter: writing model parameter values to rawfile.

Opening the PSF file ../psf/mc1_separate/002/modelParameter.info ...
element: writing instance parameter values to rawfile.

Opening the PSF file ../psf/mc1_separate/002/element.info ...
outputParameter: writing output parameter values to rawfile.

Opening the PSF file ../psf/mc1_separate/002/outputParameter.info ...
designParamVals: writing netlist parameters to rawfile.

Opening the PSFASCII file ../psf/mc1_separate/002/designParamVals.info ...
primitives: writing primitives to rawfile.

Opening the PSFASCII file ../psf/mc1_separate/002/primitives.info.primitives ...
subckts: writing subcircuits to rawfile.

Opening the PSFASCII file ../psf/mc1_separate/002/subckts.info.subckts ...
3   2.02% 

*****************************************************************************************
* 
* INFO: AMS_processOption = C35B4C3
* 
* INFO: Valid Modules  PIP VG5 HIRES
* 
*****************************************************************************************


Notice from spectre during Monte Carlo analysis `mc1'.
    V8: `period' has the unusually large value of 100 s.


***********************************************
Transient Analysis `tran': time = (0 s -> 50 s)
***********************************************

Opening the PSF file ../psf/mc1_separate/003/tran.tran.tran ...

Warning from spectre during check, during IC analysis, during transient analysis `tran', during Monte Carlo analysis `mc1'.
    WARNING (CMI-2943): Parameter checks have been ignored because the valid value for parameter 'trise' could not be found in 'C1'.
    WARNING (CMI-2943): Parameter checks have been ignored because the valid value for parameter 'trise' could not be found in 'I0.R2.CM'.
    WARNING (CMI-2943): Parameter checks have been ignored because the valid value for parameter 'trise' could not be found in 'I0.R2.CS1'.
    WARNING (CMI-2943): Parameter checks have been ignored because the valid value for parameter 'trise' could not be found in 'I0.R2.CS0'.
    WARNING (CMI-2943): Parameter checks have been ignored because the valid value for parameter 'trise' could not be found in 'I0.C3.C1'.
        Further occurrences of this warning will be suppressed.

Convergence achieved in 12 iterations.
DC simulation time: CPU = 2.578 ms, elapsed = 2.57778 ms.
Important parameter values:
    start = 0 s
    outputstart = 0 s
    stop = 50 s
    step = 50 ms
    maxstep = 500 ms
    ic = all
    useprevic = no
    skipdc = no
    reltol = 10e-06
    abstol(V) = 1 uV
    abstol(I) = 1 pA
    temp = 85 C
    tnom = 27 C
    tempeffects = all
    errpreset = conservative
    method = gear2only
    lteratio = 10
    relref = alllocal
    cmin = 0 F
    gmin = 1 pS
    rabsshort = 1 mOhm


Notice from spectre during transient analysis `tran', during Monte Carlo analysis `mc1'.
    Multithreading is disabled due to the size of the design being too small.


Output and IC/nodeset summary:
                 save   8       (current)
                 save   87      (voltage)

    tran: time = 1.457 s     (2.91 %), step = 500 ms          (1 %)
    tran: time = 3.957 s     (7.91 %), step = 500 ms          (1 %)
    tran: time = 6.457 s     (12.9 %), step = 500 ms          (1 %)
    tran: time = 8.957 s     (17.9 %), step = 500 ms          (1 %)
    tran: time = 11.46 s     (22.9 %), step = 500 ms          (1 %)
    tran: time = 13.96 s     (27.9 %), step = 500 ms          (1 %)
    tran: time = 16.46 s     (32.9 %), step = 500 ms          (1 %)
    tran: time = 18.96 s     (37.9 %), step = 500 ms          (1 %)
    tran: time = 21.46 s     (42.9 %), step = 500 ms          (1 %)
    tran: time = 23.96 s     (47.9 %), step = 500 ms          (1 %)
    tran: time = 26.46 s     (52.9 %), step = 500 ms          (1 %)
    tran: time = 28.96 s     (57.9 %), step = 500 ms          (1 %)
    tran: time = 31.46 s     (62.9 %), step = 500 ms          (1 %)
    tran: time = 33.96 s     (67.9 %), step = 500 ms          (1 %)
    tran: time = 36.46 s     (72.9 %), step = 500 ms          (1 %)
    tran: time = 38.96 s     (77.9 %), step = 500 ms          (1 %)
    tran: time = 41.46 s     (82.9 %), step = 500 ms          (1 %)
    tran: time = 43.96 s     (87.9 %), step = 500 ms          (1 %)
    tran: time = 46.46 s     (92.9 %), step = 500 ms          (1 %)
    tran: time = 48.96 s     (97.9 %), step = 500 ms          (1 %)
Number of accepted tran steps =             677

Maximum value achieved for any signal of each quantity: 
V: V(S<0>) = 3.3 V
I: I(V8:p) = 7.018 uA
Maximum value of each quantity, excluding Verilog-A modules or dangling current sources:
V: V(vout_filt) = 3.111 V
I: I(V8:p) = 7.018 uA

~~~~~~~~~~~~~~~~~~~~~~~~~~~~~~~~~
Post-Transient Simulation Summary
~~~~~~~~~~~~~~~~~~~~~~~~~~~~~~~~~
   -   To further speed up simulation, consider
          add ++aps on command line
   -   Non-default settings that could significantly slow down simulation
          errpreset = conservative, default moderate
          reltol = 10e-06, default 100e-06 (conservative)
~~~~~~~~~~~~~~~~~~~~~~~~~~~~~~~~~


During simulation, the CPU load for active processors is :
         0 (34.0 %)      1 (24.4 %)      2 (19.5 %)      3 (13.0 %)
         4 (16.2 %)      5 (23.3 %)      6 (11.3 %)      7 (18.8 %)
         8 (6.1 %)       9 (56.6 %)     10 (10.2 %)     11 (3.8 %)
        12 (31.4 %)     13 (9.9 %)      14 (4.2 %)      15 (7.6 %)
        16 (32.5 %)     17 (18.4 %)     18 (24.1 %)     19 (6.1 %)
        20 (10.5 %)     21 (8.0 %)      22 (3.4 %)      23 (100.0 %)
        24 (33.2 %)     25 (44.2 %)     26 (32.1 %)     27 (6.1 %)
        28 (99.6 %)     29 (6.1 %)      30 (19.4 %)     31 (4.2 %)
        32 (4.9 %)      33 (2.6 %)      34 (3.7 %)      35 (5.6 %)
        36 (80.4 %)     37 (11.4 %)     38 (22.0 %)     39 (13.0 %)
        40 (14.3 %)     41 (15.4 %)     42 (4.9 %)      43 (6.0 %)
        44 (4.5 %)      45 (4.2 %)      46 (100.0 %)    47 (6.4 %)
        Total: 1037.4%
Initial condition solution time: CPU = 2.647 ms, elapsed = 2.64883 ms.
Intrinsic tran analysis time:    CPU = 368.582 ms, elapsed = 369.783 ms.
Total time required for tran analysis `tran': CPU = 373.605 ms, elapsed = 375.363 ms, util. = 99.5%.
Time accumulated: CPU = 2.18071 s, elapsed = 2.75891 s.
Peak resident memory used = 214 Mbytes.


Notice from spectre during transient analysis `tran', during Monte Carlo analysis `mc1'.
    34 warnings suppressed.

finalTimeOP: writing operating point information to rawfile.

Opening the PSF file ../psf/mc1_separate/003/finalTimeOP.info ...
modelParameter: writing model parameter values to rawfile.

Opening the PSF file ../psf/mc1_separate/003/modelParameter.info ...
element: writing instance parameter values to rawfile.

Opening the PSF file ../psf/mc1_separate/003/element.info ...
outputParameter: writing output parameter values to rawfile.

Opening the PSF file ../psf/mc1_separate/003/outputParameter.info ...
designParamVals: writing netlist parameters to rawfile.

Opening the PSFASCII file ../psf/mc1_separate/003/designParamVals.info ...
primitives: writing primitives to rawfile.

Opening the PSFASCII file ../psf/mc1_separate/003/primitives.info.primitives ...
subckts: writing subcircuits to rawfile.

Opening the PSFASCII file ../psf/mc1_separate/003/subckts.info.subckts ...
4   3.03% 

*****************************************************************************************
* 
* INFO: AMS_processOption = C35B4C3
* 
* INFO: Valid Modules  PIP VG5 HIRES
* 
*****************************************************************************************


Notice from spectre during Monte Carlo analysis `mc1'.
    V8: `period' has the unusually large value of 100 s.


***********************************************
Transient Analysis `tran': time = (0 s -> 50 s)
***********************************************

Opening the PSF file ../psf/mc1_separate/004/tran.tran.tran ...

Warning from spectre during check, during IC analysis, during transient analysis `tran', during Monte Carlo analysis `mc1'.
    WARNING (CMI-2943): Parameter checks have been ignored because the valid value for parameter 'trise' could not be found in 'C1'.
    WARNING (CMI-2943): Parameter checks have been ignored because the valid value for parameter 'trise' could not be found in 'I0.R2.CM'.
    WARNING (CMI-2943): Parameter checks have been ignored because the valid value for parameter 'trise' could not be found in 'I0.R2.CS1'.
    WARNING (CMI-2943): Parameter checks have been ignored because the valid value for parameter 'trise' could not be found in 'I0.R2.CS0'.
    WARNING (CMI-2943): Parameter checks have been ignored because the valid value for parameter 'trise' could not be found in 'I0.C3.C1'.
        Further occurrences of this warning will be suppressed.

Convergence achieved in 12 iterations.
DC simulation time: CPU = 2.308 ms, elapsed = 2.30789 ms.
Important parameter values:
    start = 0 s
    outputstart = 0 s
    stop = 50 s
    step = 50 ms
    maxstep = 500 ms
    ic = all
    useprevic = no
    skipdc = no
    reltol = 10e-06
    abstol(V) = 1 uV
    abstol(I) = 1 pA
    temp = 85 C
    tnom = 27 C
    tempeffects = all
    errpreset = conservative
    method = gear2only
    lteratio = 10
    relref = alllocal
    cmin = 0 F
    gmin = 1 pS
    rabsshort = 1 mOhm


Notice from spectre during transient analysis `tran', during Monte Carlo analysis `mc1'.
    Multithreading is disabled due to the size of the design being too small.


Output and IC/nodeset summary:
                 save   8       (current)
                 save   87      (voltage)

    tran: time = 1.373 s     (2.75 %), step = 500 ms          (1 %)
    tran: time = 3.873 s     (7.75 %), step = 500 ms          (1 %)
    tran: time = 6.373 s     (12.7 %), step = 500 ms          (1 %)
    tran: time = 8.873 s     (17.7 %), step = 500 ms          (1 %)
    tran: time = 11.37 s     (22.7 %), step = 500 ms          (1 %)
    tran: time = 13.87 s     (27.7 %), step = 500 ms          (1 %)
    tran: time = 16.37 s     (32.7 %), step = 500 ms          (1 %)
    tran: time = 18.87 s     (37.7 %), step = 500 ms          (1 %)
    tran: time = 21.37 s     (42.7 %), step = 500 ms          (1 %)
    tran: time = 23.87 s     (47.7 %), step = 500 ms          (1 %)
    tran: time = 26.37 s     (52.7 %), step = 500 ms          (1 %)
    tran: time = 28.87 s     (57.7 %), step = 500 ms          (1 %)
    tran: time = 31.37 s     (62.7 %), step = 500 ms          (1 %)
    tran: time = 33.87 s     (67.7 %), step = 500 ms          (1 %)
    tran: time = 36.37 s     (72.7 %), step = 500 ms          (1 %)
    tran: time = 38.87 s     (77.7 %), step = 500 ms          (1 %)
    tran: time = 41.37 s     (82.7 %), step = 500 ms          (1 %)
    tran: time = 43.87 s     (87.7 %), step = 500 ms          (1 %)
    tran: time = 46.37 s     (92.7 %), step = 500 ms          (1 %)
    tran: time = 48.87 s     (97.7 %), step = 500 ms          (1 %)
Number of accepted tran steps =             675

Maximum value achieved for any signal of each quantity: 
V: V(S<0>) = 3.3 V
I: I(V8:p) = 7.276 uA
Maximum value of each quantity, excluding Verilog-A modules or dangling current sources:
V: V(vout_filt) = 3.091 V
I: I(V8:p) = 7.276 uA

~~~~~~~~~~~~~~~~~~~~~~~~~~~~~~~~~
Post-Transient Simulation Summary
~~~~~~~~~~~~~~~~~~~~~~~~~~~~~~~~~
   -   To further speed up simulation, consider
          add ++aps on command line
   -   Non-default settings that could significantly slow down simulation
          errpreset = conservative, default moderate
          reltol = 10e-06, default 100e-06 (conservative)
~~~~~~~~~~~~~~~~~~~~~~~~~~~~~~~~~


During simulation, the CPU load for active processors is :
         0 (42.0 %)      1 (21.5 %)      2 (17.2 %)      3 (13.5 %)
         4 (14.6 %)      5 (23.0 %)      6 (13.4 %)      7 (17.5 %)
         8 (6.3 %)       9 (56.5 %)     10 (11.7 %)     11 (3.9 %)
        12 (28.0 %)     13 (8.6 %)      14 (4.6 %)      15 (7.2 %)
        16 (41.2 %)     17 (16.3 %)     18 (21.2 %)     19 (8.6 %)
        20 (10.4 %)     21 (17.9 %)     22 (3.9 %)      23 (100.0 %)
        24 (28.9 %)     25 (38.8 %)     26 (41.3 %)     27 (5.9 %)
        28 (99.7 %)     29 (5.9 %)      30 (30.3 %)     31 (3.9 %)
        32 (4.5 %)      33 (2.6 %)      34 (7.8 %)      35 (4.9 %)
        36 (81.9 %)     37 (11.2 %)     38 (19.6 %)     39 (11.3 %)
        40 (13.0 %)     41 (15.6 %)     42 (5.6 %)      43 (6.2 %)
        44 (4.2 %)      45 (3.9 %)      46 (100.0 %)    47 (6.2 %)
        Total: 1061.9%
Initial condition solution time: CPU = 2.346 ms, elapsed = 2.34818 ms.
Intrinsic tran analysis time:    CPU = 369.881 ms, elapsed = 371.328 ms.
Total time required for tran analysis `tran': CPU = 374.389 ms, elapsed = 376.429 ms, util. = 99.5%.
Time accumulated: CPU = 2.59107 s, elapsed = 3.18128 s.
Peak resident memory used = 214 Mbytes.


Notice from spectre during transient analysis `tran', during Monte Carlo analysis `mc1'.
    34 warnings suppressed.

finalTimeOP: writing operating point information to rawfile.

Opening the PSF file ../psf/mc1_separate/004/finalTimeOP.info ...
modelParameter: writing model parameter values to rawfile.

Opening the PSF file ../psf/mc1_separate/004/modelParameter.info ...
element: writing instance parameter values to rawfile.

Opening the PSF file ../psf/mc1_separate/004/element.info ...
outputParameter: writing output parameter values to rawfile.

Opening the PSF file ../psf/mc1_separate/004/outputParameter.info ...
designParamVals: writing netlist parameters to rawfile.

Opening the PSFASCII file ../psf/mc1_separate/004/designParamVals.info ...
primitives: writing primitives to rawfile.

Opening the PSFASCII file ../psf/mc1_separate/004/primitives.info.primitives ...
subckts: writing subcircuits to rawfile.

Opening the PSFASCII file ../psf/mc1_separate/004/subckts.info.subckts ...
    mc1: iteration = 4           (3.03 %), step = 1            (1.01 %)
5   4.04% 

*****************************************************************************************
* 
* INFO: AMS_processOption = C35B4C3
* 
* INFO: Valid Modules  PIP VG5 HIRES
* 
*****************************************************************************************


Notice from spectre during Monte Carlo analysis `mc1'.
    V8: `period' has the unusually large value of 100 s.


***********************************************
Transient Analysis `tran': time = (0 s -> 50 s)
***********************************************

Opening the PSF file ../psf/mc1_separate/005/tran.tran.tran ...

Warning from spectre during check, during IC analysis, during transient analysis `tran', during Monte Carlo analysis `mc1'.
    WARNING (CMI-2943): Parameter checks have been ignored because the valid value for parameter 'trise' could not be found in 'C1'.
    WARNING (CMI-2943): Parameter checks have been ignored because the valid value for parameter 'trise' could not be found in 'I0.R2.CM'.
    WARNING (CMI-2943): Parameter checks have been ignored because the valid value for parameter 'trise' could not be found in 'I0.R2.CS1'.
    WARNING (CMI-2943): Parameter checks have been ignored because the valid value for parameter 'trise' could not be found in 'I0.R2.CS0'.
    WARNING (CMI-2943): Parameter checks have been ignored because the valid value for parameter 'trise' could not be found in 'I0.C3.C1'.
        Further occurrences of this warning will be suppressed.

Convergence achieved in 12 iterations.
DC simulation time: CPU = 2.508 ms, elapsed = 2.51889 ms.
Important parameter values:
    start = 0 s
    outputstart = 0 s
    stop = 50 s
    step = 50 ms
    maxstep = 500 ms
    ic = all
    useprevic = no
    skipdc = no
    reltol = 10e-06
    abstol(V) = 1 uV
    abstol(I) = 1 pA
    temp = 85 C
    tnom = 27 C
    tempeffects = all
    errpreset = conservative
    method = gear2only
    lteratio = 10
    relref = alllocal
    cmin = 0 F
    gmin = 1 pS
    rabsshort = 1 mOhm


Notice from spectre during transient analysis `tran', during Monte Carlo analysis `mc1'.
    Multithreading is disabled due to the size of the design being too small.


Output and IC/nodeset summary:
                 save   8       (current)
                 save   87      (voltage)

    tran: time = 1.497 s     (2.99 %), step = 500 ms          (1 %)
    tran: time = 3.997 s     (7.99 %), step = 500 ms          (1 %)
    tran: time = 6.497 s       (13 %), step = 500 ms          (1 %)
    tran: time = 8.997 s       (18 %), step = 500 ms          (1 %)
    tran: time = 11.5 s        (23 %), step = 500 ms          (1 %)
    tran: time = 14 s          (28 %), step = 500 ms          (1 %)
    tran: time = 16.5 s        (33 %), step = 500 ms          (1 %)
    tran: time = 19 s          (38 %), step = 500 ms          (1 %)
    tran: time = 21.5 s        (43 %), step = 500 ms          (1 %)
    tran: time = 24 s          (48 %), step = 500 ms          (1 %)
    tran: time = 26.5 s        (53 %), step = 500 ms          (1 %)
    tran: time = 29 s          (58 %), step = 500 ms          (1 %)
    tran: time = 31.5 s        (63 %), step = 500 ms          (1 %)
    tran: time = 34 s          (68 %), step = 500 ms          (1 %)
    tran: time = 36.5 s        (73 %), step = 500 ms          (1 %)
    tran: time = 39 s          (78 %), step = 500 ms          (1 %)
    tran: time = 41.5 s        (83 %), step = 500 ms          (1 %)
    tran: time = 44 s          (88 %), step = 500 ms          (1 %)
    tran: time = 46.5 s        (93 %), step = 500 ms          (1 %)
    tran: time = 49 s          (98 %), step = 500 ms          (1 %)
Number of accepted tran steps =             682

Maximum value achieved for any signal of each quantity: 
V: V(S<0>) = 3.3 V
I: I(V8:p) = 7.321 uA
Maximum value of each quantity, excluding Verilog-A modules or dangling current sources:
V: V(vout_filt) = 3.191 V
I: I(V8:p) = 7.321 uA

~~~~~~~~~~~~~~~~~~~~~~~~~~~~~~~~~
Post-Transient Simulation Summary
~~~~~~~~~~~~~~~~~~~~~~~~~~~~~~~~~
   -   To further speed up simulation, consider
          add ++aps on command line
   -   Non-default settings that could significantly slow down simulation
          errpreset = conservative, default moderate
          reltol = 10e-06, default 100e-06 (conservative)
~~~~~~~~~~~~~~~~~~~~~~~~~~~~~~~~~


During simulation, the CPU load for active processors is :
         0 (37.1 %)      1 (19.4 %)      2 (15.6 %)      3 (22.4 %)
         4 (13.2 %)      5 (32.3 %)      6 (12.6 %)      7 (19.9 %)
         8 (14.8 %)      9 (50.9 %)     10 (12.9 %)     11 (3.5 %)
        12 (26.0 %)     13 (8.4 %)      14 (4.6 %)      15 (6.6 %)
        16 (47.8 %)     17 (15.2 %)     18 (27.6 %)     19 (8.7 %)
        20 (11.1 %)     21 (19.1 %)     22 (3.8 %)      23 (100.0 %)
        24 (26.0 %)     25 (34.8 %)     26 (39.6 %)     27 (5.5 %)
        28 (99.7 %)     29 (5.5 %)      30 (35.9 %)     31 (5.8 %)
        32 (4.5 %)      33 (2.6 %)      34 (12.3 %)     35 (4.3 %)
        36 (84.0 %)     37 (10.1 %)     38 (17.5 %)     39 (10.3 %)
        40 (13.2 %)     41 (13.8 %)     42 (4.9 %)      43 (5.5 %)
        44 (3.7 %)      45 (4.0 %)      46 (88.1 %)     47 (5.4 %)
        Total: 1070.6%
Initial condition solution time: CPU = 2.557 ms, elapsed = 2.56896 ms.
Intrinsic tran analysis time:    CPU = 371.547 ms, elapsed = 373.303 ms.
Total time required for tran analysis `tran': CPU = 376.714 ms, elapsed = 379.044 ms, util. = 99.4%.
Time accumulated: CPU = 3.0049 s, elapsed = 3.60821 s.
Peak resident memory used = 214 Mbytes.


Notice from spectre during transient analysis `tran', during Monte Carlo analysis `mc1'.
    34 warnings suppressed.

finalTimeOP: writing operating point information to rawfile.

Opening the PSF file ../psf/mc1_separate/005/finalTimeOP.info ...
modelParameter: writing model parameter values to rawfile.

Opening the PSF file ../psf/mc1_separate/005/modelParameter.info ...
element: writing instance parameter values to rawfile.

Opening the PSF file ../psf/mc1_separate/005/element.info ...
outputParameter: writing output parameter values to rawfile.

Opening the PSF file ../psf/mc1_separate/005/outputParameter.info ...
designParamVals: writing netlist parameters to rawfile.

Opening the PSFASCII file ../psf/mc1_separate/005/designParamVals.info ...
primitives: writing primitives to rawfile.

Opening the PSFASCII file ../psf/mc1_separate/005/primitives.info.primitives ...
subckts: writing subcircuits to rawfile.

Opening the PSFASCII file ../psf/mc1_separate/005/subckts.info.subckts ...
    mc1: iteration = 5           (4.04 %), step = 1            (1.01 %)
6   5.05% 

*****************************************************************************************
* 
* INFO: AMS_processOption = C35B4C3
* 
* INFO: Valid Modules  PIP VG5 HIRES
* 
*****************************************************************************************


Notice from spectre during Monte Carlo analysis `mc1'.
    V8: `period' has the unusually large value of 100 s.


***********************************************
Transient Analysis `tran': time = (0 s -> 50 s)
***********************************************

Opening the PSF file ../psf/mc1_separate/006/tran.tran.tran ...

Warning from spectre during check, during IC analysis, during transient analysis `tran', during Monte Carlo analysis `mc1'.
    WARNING (CMI-2943): Parameter checks have been ignored because the valid value for parameter 'trise' could not be found in 'C1'.
    WARNING (CMI-2943): Parameter checks have been ignored because the valid value for parameter 'trise' could not be found in 'I0.R2.CM'.
    WARNING (CMI-2943): Parameter checks have been ignored because the valid value for parameter 'trise' could not be found in 'I0.R2.CS1'.
    WARNING (CMI-2943): Parameter checks have been ignored because the valid value for parameter 'trise' could not be found in 'I0.R2.CS0'.
    WARNING (CMI-2943): Parameter checks have been ignored because the valid value for parameter 'trise' could not be found in 'I0.C3.C1'.
        Further occurrences of this warning will be suppressed.

Convergence achieved in 12 iterations.
DC simulation time: CPU = 2.573 ms, elapsed = 2.57397 ms.
Important parameter values:
    start = 0 s
    outputstart = 0 s
    stop = 50 s
    step = 50 ms
    maxstep = 500 ms
    ic = all
    useprevic = no
    skipdc = no
    reltol = 10e-06
    abstol(V) = 1 uV
    abstol(I) = 1 pA
    temp = 85 C
    tnom = 27 C
    tempeffects = all
    errpreset = conservative
    method = gear2only
    lteratio = 10
    relref = alllocal
    cmin = 0 F
    gmin = 1 pS
    rabsshort = 1 mOhm


Notice from spectre during transient analysis `tran', during Monte Carlo analysis `mc1'.
    Multithreading is disabled due to the size of the design being too small.


Output and IC/nodeset summary:
                 save   8       (current)
                 save   87      (voltage)

    tran: time = 1.738 s     (3.48 %), step = 500 ms          (1 %)
    tran: time = 4.238 s     (8.48 %), step = 500 ms          (1 %)
    tran: time = 6.738 s     (13.5 %), step = 500 ms          (1 %)
    tran: time = 9.238 s     (18.5 %), step = 500 ms          (1 %)
    tran: time = 11.74 s     (23.5 %), step = 500 ms          (1 %)
    tran: time = 14.24 s     (28.5 %), step = 500 ms          (1 %)
    tran: time = 16.74 s     (33.5 %), step = 500 ms          (1 %)
    tran: time = 19.24 s     (38.5 %), step = 500 ms          (1 %)
    tran: time = 21.74 s     (43.5 %), step = 500 ms          (1 %)
    tran: time = 24.24 s     (48.5 %), step = 500 ms          (1 %)
    tran: time = 26.74 s     (53.5 %), step = 500 ms          (1 %)
    tran: time = 29.24 s     (58.5 %), step = 500 ms          (1 %)
    tran: time = 31.74 s     (63.5 %), step = 500 ms          (1 %)
    tran: time = 34.24 s     (68.5 %), step = 500 ms          (1 %)
    tran: time = 36.74 s     (73.5 %), step = 500 ms          (1 %)
    tran: time = 39.24 s     (78.5 %), step = 500 ms          (1 %)
    tran: time = 41.74 s     (83.5 %), step = 500 ms          (1 %)
    tran: time = 44.24 s     (88.5 %), step = 500 ms          (1 %)
    tran: time = 46.74 s     (93.5 %), step = 500 ms          (1 %)
    tran: time = 49.24 s     (98.5 %), step = 500 ms          (1 %)
Number of accepted tran steps =             679

Maximum value achieved for any signal of each quantity: 
V: V(S<0>) = 3.3 V
I: I(V8:p) = 7.321 uA
Maximum value of each quantity, excluding Verilog-A modules or dangling current sources:
V: V(vout_filt) = 3.149 V
I: I(V8:p) = 7.321 uA

~~~~~~~~~~~~~~~~~~~~~~~~~~~~~~~~~
Post-Transient Simulation Summary
~~~~~~~~~~~~~~~~~~~~~~~~~~~~~~~~~
   -   To further speed up simulation, consider
          add ++aps on command line
   -   Non-default settings that could significantly slow down simulation
          errpreset = conservative, default moderate
          reltol = 10e-06, default 100e-06 (conservative)
~~~~~~~~~~~~~~~~~~~~~~~~~~~~~~~~~


During simulation, the CPU load for active processors is :
         0 (33.8 %)      1 (17.8 %)      2 (14.4 %)      3 (31.0 %)
         4 (12.2 %)      5 (39.7 %)      6 (14.0 %)      7 (18.3 %)
         8 (24.0 %)      9 (47.2 %)     10 (13.2 %)     11 (3.4 %)
        12 (24.6 %)     13 (7.8 %)      14 (13.6 %)     15 (7.2 %)
        16 (44.2 %)     17 (14.6 %)     18 (28.8 %)     19 (9.3 %)
        20 (11.5 %)     21 (18.1 %)     22 (8.5 %)      23 (100.0 %)
        24 (23.5 %)     25 (31.0 %)     26 (39.1 %)     27 (5.1 %)
        28 (99.7 %)     29 (5.1 %)      30 (42.6 %)     31 (6.2 %)
        32 (8.1 %)      33 (2.3 %)      34 (11.0 %)     35 (4.3 %)
        36 (83.8 %)     37 (11.0 %)     38 (16.4 %)     39 (9.6 %)
        40 (12.3 %)     41 (12.8 %)     42 (4.4 %)      43 (4.9 %)
        44 (3.3 %)      45 (3.8 %)      46 (79.3 %)     47 (5.1 %)
        Total: 1082.2%
Initial condition solution time: CPU = 2.662 ms, elapsed = 2.6629 ms.
Intrinsic tran analysis time:    CPU = 367.758 ms, elapsed = 370.122 ms.
Total time required for tran analysis `tran': CPU = 373.673 ms, elapsed = 376.715 ms, util. = 99.2%.
Time accumulated: CPU = 3.42375 s, elapsed = 4.04001 s.
Peak resident memory used = 214 Mbytes.


Notice from spectre during transient analysis `tran', during Monte Carlo analysis `mc1'.
    34 warnings suppressed.

finalTimeOP: writing operating point information to rawfile.

Opening the PSF file ../psf/mc1_separate/006/finalTimeOP.info ...
modelParameter: writing model parameter values to rawfile.

Opening the PSF file ../psf/mc1_separate/006/modelParameter.info ...
element: writing instance parameter values to rawfile.

Opening the PSF file ../psf/mc1_separate/006/element.info ...
outputParameter: writing output parameter values to rawfile.

Opening the PSF file ../psf/mc1_separate/006/outputParameter.info ...
designParamVals: writing netlist parameters to rawfile.

Opening the PSFASCII file ../psf/mc1_separate/006/designParamVals.info ...
primitives: writing primitives to rawfile.

Opening the PSFASCII file ../psf/mc1_separate/006/primitives.info.primitives ...
subckts: writing subcircuits to rawfile.

Opening the PSFASCII file ../psf/mc1_separate/006/subckts.info.subckts ...
    mc1: iteration = 6           (5.05 %), step = 1            (1.01 %)
7   6.06% 

*****************************************************************************************
* 
* INFO: AMS_processOption = C35B4C3
* 
* INFO: Valid Modules  PIP VG5 HIRES
* 
*****************************************************************************************


Notice from spectre during Monte Carlo analysis `mc1'.
    V8: `period' has the unusually large value of 100 s.


***********************************************
Transient Analysis `tran': time = (0 s -> 50 s)
***********************************************

Opening the PSF file ../psf/mc1_separate/007/tran.tran.tran ...

Warning from spectre during check, during IC analysis, during transient analysis `tran', during Monte Carlo analysis `mc1'.
    WARNING (CMI-2943): Parameter checks have been ignored because the valid value for parameter 'trise' could not be found in 'C1'.
    WARNING (CMI-2943): Parameter checks have been ignored because the valid value for parameter 'trise' could not be found in 'I0.R2.CM'.
    WARNING (CMI-2943): Parameter checks have been ignored because the valid value for parameter 'trise' could not be found in 'I0.R2.CS1'.
    WARNING (CMI-2943): Parameter checks have been ignored because the valid value for parameter 'trise' could not be found in 'I0.R2.CS0'.
    WARNING (CMI-2943): Parameter checks have been ignored because the valid value for parameter 'trise' could not be found in 'I0.C3.C1'.
        Further occurrences of this warning will be suppressed.

Convergence achieved in 12 iterations.
DC simulation time: CPU = 2.255 ms, elapsed = 2.25496 ms.
Important parameter values:
    start = 0 s
    outputstart = 0 s
    stop = 50 s
    step = 50 ms
    maxstep = 500 ms
    ic = all
    useprevic = no
    skipdc = no
    reltol = 10e-06
    abstol(V) = 1 uV
    abstol(I) = 1 pA
    temp = 85 C
    tnom = 27 C
    tempeffects = all
    errpreset = conservative
    method = gear2only
    lteratio = 10
    relref = alllocal
    cmin = 0 F
    gmin = 1 pS
    rabsshort = 1 mOhm


Notice from spectre during transient analysis `tran', during Monte Carlo analysis `mc1'.
    Multithreading is disabled due to the size of the design being too small.


Output and IC/nodeset summary:
                 save   8       (current)
                 save   87      (voltage)

    tran: time = 1.609 s     (3.22 %), step = 500 ms          (1 %)
    tran: time = 4.109 s     (8.22 %), step = 500 ms          (1 %)
    tran: time = 6.609 s     (13.2 %), step = 500 ms          (1 %)
    tran: time = 9.109 s     (18.2 %), step = 500 ms          (1 %)
    tran: time = 11.61 s     (23.2 %), step = 500 ms          (1 %)
    tran: time = 14.11 s     (28.2 %), step = 500 ms          (1 %)
    tran: time = 16.61 s     (33.2 %), step = 500 ms          (1 %)
    tran: time = 19.11 s     (38.2 %), step = 500 ms          (1 %)
    tran: time = 21.61 s     (43.2 %), step = 500 ms          (1 %)
    tran: time = 24.11 s     (48.2 %), step = 500 ms          (1 %)
    tran: time = 26.61 s     (53.2 %), step = 500 ms          (1 %)
    tran: time = 29.11 s     (58.2 %), step = 500 ms          (1 %)
    tran: time = 31.61 s     (63.2 %), step = 500 ms          (1 %)
    tran: time = 34.11 s     (68.2 %), step = 500 ms          (1 %)
    tran: time = 36.61 s     (73.2 %), step = 500 ms          (1 %)
    tran: time = 39.11 s     (78.2 %), step = 500 ms          (1 %)
    tran: time = 41.61 s     (83.2 %), step = 500 ms          (1 %)
    tran: time = 44.11 s     (88.2 %), step = 500 ms          (1 %)
    tran: time = 46.61 s     (93.2 %), step = 500 ms          (1 %)
    tran: time = 49.11 s     (98.2 %), step = 500 ms          (1 %)
Number of accepted tran steps =             680

Maximum value achieved for any signal of each quantity: 
V: V(S<0>) = 3.3 V
I: I(V8:p) = 7.244 uA
Maximum value of each quantity, excluding Verilog-A modules or dangling current sources:
V: V(vout_filt) = 3.179 V
I: I(V8:p) = 7.244 uA

~~~~~~~~~~~~~~~~~~~~~~~~~~~~~~~~~
Post-Transient Simulation Summary
~~~~~~~~~~~~~~~~~~~~~~~~~~~~~~~~~
   -   To further speed up simulation, consider
          add ++aps on command line
   -   Non-default settings that could significantly slow down simulation
          errpreset = conservative, default moderate
          reltol = 10e-06, default 100e-06 (conservative)
~~~~~~~~~~~~~~~~~~~~~~~~~~~~~~~~~


During simulation, the CPU load for active processors is :
         0 (32.1 %)      1 (16.7 %)      2 (13.7 %)      3 (37.8 %)
         4 (11.5 %)      5 (42.6 %)      6 (14.7 %)      7 (16.6 %)
         8 (29.3 %)      9 (43.7 %)     10 (12.2 %)     11 (3.1 %)
        12 (23.1 %)     13 (7.2 %)      14 (21.8 %)     15 (6.9 %)
        16 (40.7 %)     17 (13.4 %)     18 (26.3 %)     19 (8.6 %)
        20 (10.6 %)     21 (16.8 %)     22 (17.2 %)     23 (100.0 %)
        24 (21.4 %)     25 (28.6 %)     26 (35.5 %)     27 (5.3 %)
        28 (99.8 %)     29 (4.9 %)      30 (48.2 %)     31 (5.8 %)
        32 (7.6 %)      33 (2.6 %)      34 (10.4 %)     35 (6.2 %)
        36 (76.3 %)     37 (10.0 %)     38 (24.2 %)     39 (9.0 %)
        40 (15.0 %)     41 (11.6 %)     42 (4.4 %)      43 (4.6 %)
        44 (3.0 %)      45 (3.7 %)      46 (72.0 %)     47 (4.8 %)
        Total: 1081.8%
Initial condition solution time: CPU = 2.301 ms, elapsed = 2.30193 ms.
Intrinsic tran analysis time:    CPU = 366.557 ms, elapsed = 367.901 ms.
Total time required for tran analysis `tran': CPU = 371.079 ms, elapsed = 373.095 ms, util. = 99.5%.
Time accumulated: CPU = 3.83241 s, elapsed = 4.46036 s.
Peak resident memory used = 214 Mbytes.


Notice from spectre during transient analysis `tran', during Monte Carlo analysis `mc1'.
    34 warnings suppressed.

finalTimeOP: writing operating point information to rawfile.

Opening the PSF file ../psf/mc1_separate/007/finalTimeOP.info ...
modelParameter: writing model parameter values to rawfile.

Opening the PSF file ../psf/mc1_separate/007/modelParameter.info ...
element: writing instance parameter values to rawfile.

Opening the PSF file ../psf/mc1_separate/007/element.info ...
outputParameter: writing output parameter values to rawfile.

Opening the PSF file ../psf/mc1_separate/007/outputParameter.info ...
designParamVals: writing netlist parameters to rawfile.

Opening the PSFASCII file ../psf/mc1_separate/007/designParamVals.info ...
primitives: writing primitives to rawfile.

Opening the PSFASCII file ../psf/mc1_separate/007/primitives.info.primitives ...
subckts: writing subcircuits to rawfile.

Opening the PSFASCII file ../psf/mc1_separate/007/subckts.info.subckts ...
    mc1: iteration = 7           (6.06 %), step = 1            (1.01 %)
8   7.07% 

*****************************************************************************************
* 
* INFO: AMS_processOption = C35B4C3
* 
* INFO: Valid Modules  PIP VG5 HIRES
* 
*****************************************************************************************


Notice from spectre during Monte Carlo analysis `mc1'.
    V8: `period' has the unusually large value of 100 s.


***********************************************
Transient Analysis `tran': time = (0 s -> 50 s)
***********************************************

Opening the PSF file ../psf/mc1_separate/008/tran.tran.tran ...

Warning from spectre during check, during IC analysis, during transient analysis `tran', during Monte Carlo analysis `mc1'.
    WARNING (CMI-2943): Parameter checks have been ignored because the valid value for parameter 'trise' could not be found in 'C1'.
    WARNING (CMI-2943): Parameter checks have been ignored because the valid value for parameter 'trise' could not be found in 'I0.R2.CM'.
    WARNING (CMI-2943): Parameter checks have been ignored because the valid value for parameter 'trise' could not be found in 'I0.R2.CS1'.
    WARNING (CMI-2943): Parameter checks have been ignored because the valid value for parameter 'trise' could not be found in 'I0.R2.CS0'.
    WARNING (CMI-2943): Parameter checks have been ignored because the valid value for parameter 'trise' could not be found in 'I0.C3.C1'.
        Further occurrences of this warning will be suppressed.

Convergence achieved in 12 iterations.
DC simulation time: CPU = 2.177 ms, elapsed = 2.177 ms.
Important parameter values:
    start = 0 s
    outputstart = 0 s
    stop = 50 s
    step = 50 ms
    maxstep = 500 ms
    ic = all
    useprevic = no
    skipdc = no
    reltol = 10e-06
    abstol(V) = 1 uV
    abstol(I) = 1 pA
    temp = 85 C
    tnom = 27 C
    tempeffects = all
    errpreset = conservative
    method = gear2only
    lteratio = 10
    relref = alllocal
    cmin = 0 F
    gmin = 1 pS
    rabsshort = 1 mOhm


Notice from spectre during transient analysis `tran', during Monte Carlo analysis `mc1'.
    Multithreading is disabled due to the size of the design being too small.


Output and IC/nodeset summary:
                 save   8       (current)
                 save   87      (voltage)

    tran: time = 1.658 s     (3.32 %), step = 500 ms          (1 %)
    tran: time = 4.158 s     (8.32 %), step = 500 ms          (1 %)
    tran: time = 6.658 s     (13.3 %), step = 500 ms          (1 %)
    tran: time = 9.158 s     (18.3 %), step = 500 ms          (1 %)
    tran: time = 11.66 s     (23.3 %), step = 500 ms          (1 %)
    tran: time = 14.16 s     (28.3 %), step = 500 ms          (1 %)
    tran: time = 16.66 s     (33.3 %), step = 500 ms          (1 %)
    tran: time = 19.16 s     (38.3 %), step = 500 ms          (1 %)
    tran: time = 21.66 s     (43.3 %), step = 500 ms          (1 %)
    tran: time = 24.16 s     (48.3 %), step = 500 ms          (1 %)
    tran: time = 26.66 s     (53.3 %), step = 500 ms          (1 %)
    tran: time = 29.16 s     (58.3 %), step = 500 ms          (1 %)
    tran: time = 31.66 s     (63.3 %), step = 500 ms          (1 %)
    tran: time = 34.16 s     (68.3 %), step = 500 ms          (1 %)
    tran: time = 36.66 s     (73.3 %), step = 500 ms          (1 %)
    tran: time = 39.16 s     (78.3 %), step = 500 ms          (1 %)
    tran: time = 41.66 s     (83.3 %), step = 500 ms          (1 %)
    tran: time = 44.16 s     (88.3 %), step = 500 ms          (1 %)
    tran: time = 46.66 s     (93.3 %), step = 500 ms          (1 %)
    tran: time = 49.16 s     (98.3 %), step = 500 ms          (1 %)
Number of accepted tran steps =             682

Maximum value achieved for any signal of each quantity: 
V: V(S<0>) = 3.3 V
I: I(V8:p) = 7.293 uA
Maximum value of each quantity, excluding Verilog-A modules or dangling current sources:
V: V(vout_filt) = 3.192 V
I: I(V8:p) = 7.293 uA

~~~~~~~~~~~~~~~~~~~~~~~~~~~~~~~~~
Post-Transient Simulation Summary
~~~~~~~~~~~~~~~~~~~~~~~~~~~~~~~~~
   -   To further speed up simulation, consider
          add ++aps on command line
   -   Non-default settings that could significantly slow down simulation
          errpreset = conservative, default moderate
          reltol = 10e-06, default 100e-06 (conservative)
~~~~~~~~~~~~~~~~~~~~~~~~~~~~~~~~~


During simulation, the CPU load for active processors is :
         0 (30.9 %)      1 (16.1 %)      2 (13.1 %)      3 (40.6 %)
         4 (10.9 %)      5 (45.0 %)      6 (14.9 %)      7 (15.6 %)
         8 (26.8 %)      9 (40.3 %)     10 (12.2 %)     11 (3.0 %)
        12 (21.7 %)     13 (7.0 %)      14 (20.1 %)     15 (6.6 %)
        16 (37.3 %)     17 (21.1 %)     18 (24.5 %)     19 (8.1 %)
        20 (10.1 %)     21 (16.9 %)     22 (23.7 %)     23 (100.0 %)
        24 (20.3 %)     25 (26.3 %)     26 (32.9 %)     27 (5.1 %)
        28 (99.8 %)     29 (4.6 %)      30 (45.4 %)     31 (6.6 %)
        32 (7.1 %)      33 (8.1 %)      34 (9.7 %)      35 (9.0 %)
        36 (70.0 %)     37 (9.9 %)      38 (27.5 %)     39 (8.2 %)
        40 (22.6 %)     41 (10.6 %)     42 (4.0 %)      43 (8.5 %)
        44 (2.8 %)      45 (3.6 %)      46 (65.9 %)     47 (4.4 %)
        Total: 1079.4%
Initial condition solution time: CPU = 2.238 ms, elapsed = 2.24018 ms.
Intrinsic tran analysis time:    CPU = 370.638 ms, elapsed = 371.929 ms.
Total time required for tran analysis `tran': CPU = 374.918 ms, elapsed = 376.929 ms, util. = 99.5%.
Time accumulated: CPU = 4.24368 s, elapsed = 4.88434 s.
Peak resident memory used = 214 Mbytes.


Notice from spectre during transient analysis `tran', during Monte Carlo analysis `mc1'.
    34 warnings suppressed.

finalTimeOP: writing operating point information to rawfile.

Opening the PSF file ../psf/mc1_separate/008/finalTimeOP.info ...
modelParameter: writing model parameter values to rawfile.

Opening the PSF file ../psf/mc1_separate/008/modelParameter.info ...
element: writing instance parameter values to rawfile.

Opening the PSF file ../psf/mc1_separate/008/element.info ...
outputParameter: writing output parameter values to rawfile.

Opening the PSF file ../psf/mc1_separate/008/outputParameter.info ...
designParamVals: writing netlist parameters to rawfile.

Opening the PSFASCII file ../psf/mc1_separate/008/designParamVals.info ...
primitives: writing primitives to rawfile.

Opening the PSFASCII file ../psf/mc1_separate/008/primitives.info.primitives ...
subckts: writing subcircuits to rawfile.

Opening the PSFASCII file ../psf/mc1_separate/008/subckts.info.subckts ...
    mc1: iteration = 8           (7.07 %), step = 1            (1.01 %)
9   8.08% 

*****************************************************************************************
* 
* INFO: AMS_processOption = C35B4C3
* 
* INFO: Valid Modules  PIP VG5 HIRES
* 
*****************************************************************************************


Notice from spectre during Monte Carlo analysis `mc1'.
    V8: `period' has the unusually large value of 100 s.


***********************************************
Transient Analysis `tran': time = (0 s -> 50 s)
***********************************************

Opening the PSF file ../psf/mc1_separate/009/tran.tran.tran ...

Warning from spectre during check, during IC analysis, during transient analysis `tran', during Monte Carlo analysis `mc1'.
    WARNING (CMI-2943): Parameter checks have been ignored because the valid value for parameter 'trise' could not be found in 'C1'.
    WARNING (CMI-2943): Parameter checks have been ignored because the valid value for parameter 'trise' could not be found in 'I0.R2.CM'.
    WARNING (CMI-2943): Parameter checks have been ignored because the valid value for parameter 'trise' could not be found in 'I0.R2.CS1'.
    WARNING (CMI-2943): Parameter checks have been ignored because the valid value for parameter 'trise' could not be found in 'I0.R2.CS0'.
    WARNING (CMI-2943): Parameter checks have been ignored because the valid value for parameter 'trise' could not be found in 'I0.C3.C1'.
        Further occurrences of this warning will be suppressed.

Convergence achieved in 12 iterations.
DC simulation time: CPU = 2.284 ms, elapsed = 2.28405 ms.
Important parameter values:
    start = 0 s
    outputstart = 0 s
    stop = 50 s
    step = 50 ms
    maxstep = 500 ms
    ic = all
    useprevic = no
    skipdc = no
    reltol = 10e-06
    abstol(V) = 1 uV
    abstol(I) = 1 pA
    temp = 85 C
    tnom = 27 C
    tempeffects = all
    errpreset = conservative
    method = gear2only
    lteratio = 10
    relref = alllocal
    cmin = 0 F
    gmin = 1 pS
    rabsshort = 1 mOhm


Notice from spectre during transient analysis `tran', during Monte Carlo analysis `mc1'.
    Multithreading is disabled due to the size of the design being too small.


Output and IC/nodeset summary:
                 save   8       (current)
                 save   87      (voltage)

    tran: time = 1.39 s      (2.78 %), step = 500 ms          (1 %)
    tran: time = 3.89 s      (7.78 %), step = 500 ms          (1 %)
    tran: time = 6.39 s      (12.8 %), step = 500 ms          (1 %)
    tran: time = 8.89 s      (17.8 %), step = 500 ms          (1 %)
    tran: time = 11.39 s     (22.8 %), step = 500 ms          (1 %)
    tran: time = 13.89 s     (27.8 %), step = 500 ms          (1 %)
    tran: time = 16.39 s     (32.8 %), step = 500 ms          (1 %)
    tran: time = 18.89 s     (37.8 %), step = 500 ms          (1 %)
    tran: time = 21.39 s     (42.8 %), step = 500 ms          (1 %)
    tran: time = 23.89 s     (47.8 %), step = 500 ms          (1 %)
    tran: time = 26.39 s     (52.8 %), step = 500 ms          (1 %)
    tran: time = 28.89 s     (57.8 %), step = 500 ms          (1 %)
    tran: time = 31.39 s     (62.8 %), step = 500 ms          (1 %)
    tran: time = 33.89 s     (67.8 %), step = 500 ms          (1 %)
    tran: time = 36.39 s     (72.8 %), step = 500 ms          (1 %)
    tran: time = 38.89 s     (77.8 %), step = 500 ms          (1 %)
    tran: time = 41.39 s     (82.8 %), step = 500 ms          (1 %)
    tran: time = 43.89 s     (87.8 %), step = 500 ms          (1 %)
    tran: time = 46.39 s     (92.8 %), step = 500 ms          (1 %)
    tran: time = 48.89 s     (97.8 %), step = 500 ms          (1 %)
Number of accepted tran steps =             684

Maximum value achieved for any signal of each quantity: 
V: V(S<0>) = 3.3 V
I: I(V8:p) = 7.133 uA
Maximum value of each quantity, excluding Verilog-A modules or dangling current sources:
V: V(vout_filt) = 3.229 V
I: I(V8:p) = 7.133 uA

~~~~~~~~~~~~~~~~~~~~~~~~~~~~~~~~~
Post-Transient Simulation Summary
~~~~~~~~~~~~~~~~~~~~~~~~~~~~~~~~~
   -   To further speed up simulation, consider
          add ++aps on command line
   -   Non-default settings that could significantly slow down simulation
          errpreset = conservative, default moderate
          reltol = 10e-06, default 100e-06 (conservative)
~~~~~~~~~~~~~~~~~~~~~~~~~~~~~~~~~


During simulation, the CPU load for active processors is :
         0 (28.7 %)      1 (23.0 %)      2 (12.6 %)      3 (37.9 %)
         4 (10.3 %)      5 (46.9 %)      6 (15.5 %)      7 (16.3 %)
         8 (24.6 %)      9 (37.6 %)     10 (12.6 %)     11 (3.3 %)
        12 (21.7 %)     13 (7.2 %)      14 (18.5 %)     15 (6.8 %)
        16 (34.6 %)     17 (19.9 %)     18 (30.0 %)     19 (8.0 %)
        20 (9.7 %)      21 (16.5 %)     22 (30.1 %)     23 (100.0 %)
        24 (19.9 %)     25 (25.2 %)     26 (30.9 %)     27 (5.2 %)
        28 (99.8 %)     29 (4.5 %)      30 (41.7 %)     31 (6.0 %)
        32 (6.6 %)      33 (15.6 %)     34 (9.1 %)      35 (9.8 %)
        36 (67.1 %)     37 (9.9 %)      38 (26.4 %)     39 (8.1 %)
        40 (29.0 %)     41 (11.4 %)     42 (4.1 %)      43 (14.8 %)
        44 (3.1 %)      45 (3.9 %)      46 (61.0 %)     47 (4.5 %)
        Total: 1090.0%
Initial condition solution time: CPU = 2.321 ms, elapsed = 2.32291 ms.
Intrinsic tran analysis time:    CPU = 372.852 ms, elapsed = 374.397 ms.
Total time required for tran analysis `tran': CPU = 377.396 ms, elapsed = 379.483 ms, util. = 99.5%.
Time accumulated: CPU = 4.659 s, elapsed = 5.3115 s.
Peak resident memory used = 214 Mbytes.


Notice from spectre during transient analysis `tran', during Monte Carlo analysis `mc1'.
    34 warnings suppressed.

finalTimeOP: writing operating point information to rawfile.

Opening the PSF file ../psf/mc1_separate/009/finalTimeOP.info ...
modelParameter: writing model parameter values to rawfile.

Opening the PSF file ../psf/mc1_separate/009/modelParameter.info ...
element: writing instance parameter values to rawfile.

Opening the PSF file ../psf/mc1_separate/009/element.info ...
outputParameter: writing output parameter values to rawfile.

Opening the PSF file ../psf/mc1_separate/009/outputParameter.info ...
designParamVals: writing netlist parameters to rawfile.

Opening the PSFASCII file ../psf/mc1_separate/009/designParamVals.info ...
primitives: writing primitives to rawfile.

Opening the PSFASCII file ../psf/mc1_separate/009/primitives.info.primitives ...
subckts: writing subcircuits to rawfile.

Opening the PSFASCII file ../psf/mc1_separate/009/subckts.info.subckts ...
    mc1: iteration = 9           (8.08 %), step = 1            (1.01 %)
10   9.09% 

*****************************************************************************************
* 
* INFO: AMS_processOption = C35B4C3
* 
* INFO: Valid Modules  PIP VG5 HIRES
* 
*****************************************************************************************


Notice from spectre during Monte Carlo analysis `mc1'.
    V8: `period' has the unusually large value of 100 s.


***********************************************
Transient Analysis `tran': time = (0 s -> 50 s)
***********************************************

Opening the PSF file ../psf/mc1_separate/010/tran.tran.tran ...

Warning from spectre during check, during IC analysis, during transient analysis `tran', during Monte Carlo analysis `mc1'.
    WARNING (CMI-2943): Parameter checks have been ignored because the valid value for parameter 'trise' could not be found in 'C1'.
    WARNING (CMI-2943): Parameter checks have been ignored because the valid value for parameter 'trise' could not be found in 'I0.R2.CM'.
    WARNING (CMI-2943): Parameter checks have been ignored because the valid value for parameter 'trise' could not be found in 'I0.R2.CS1'.
    WARNING (CMI-2943): Parameter checks have been ignored because the valid value for parameter 'trise' could not be found in 'I0.R2.CS0'.
    WARNING (CMI-2943): Parameter checks have been ignored because the valid value for parameter 'trise' could not be found in 'I0.C3.C1'.
        Further occurrences of this warning will be suppressed.

Convergence achieved in 12 iterations.
DC simulation time: CPU = 2.372 ms, elapsed = 2.37298 ms.
Important parameter values:
    start = 0 s
    outputstart = 0 s
    stop = 50 s
    step = 50 ms
    maxstep = 500 ms
    ic = all
    useprevic = no
    skipdc = no
    reltol = 10e-06
    abstol(V) = 1 uV
    abstol(I) = 1 pA
    temp = 85 C
    tnom = 27 C
[...]
    WARNING (CMI-2943): Parameter checks have been ignored because the valid value for parameter 'trise' could not be found in 'I0.R2.CM'.
    WARNING (CMI-2943): Parameter checks have been ignored because the valid value for parameter 'trise' could not be found in 'I0.R2.CS1'.
    WARNING (CMI-2943): Parameter checks have been ignored because the valid value for parameter 'trise' could not be found in 'I0.R2.CS0'.
    WARNING (CMI-2943): Parameter checks have been ignored because the valid value for parameter 'trise' could not be found in 'I0.C3.C1'.
        Further occurrences of this warning will be suppressed.

Convergence achieved in 12 iterations.
DC simulation time: CPU = 2.731 ms, elapsed = 2.74181 ms.
Important parameter values:
    start = 0 s
    outputstart = 0 s
    stop = 50 s
    step = 50 ms
    maxstep = 500 ms
    ic = all
    useprevic = no
    skipdc = no
    reltol = 10e-06
    abstol(V) = 1 uV
    abstol(I) = 1 pA
    temp = 85 C
    tnom = 27 C
    tempeffects = all
    errpreset = conservative
    method = gear2only
    lteratio = 10
    relref = alllocal
    cmin = 0 F
    gmin = 1 pS
    rabsshort = 1 mOhm


Notice from spectre during transient analysis `tran', during Monte Carlo analysis `mc1'.
    Multithreading is disabled due to the size of the design being too small.


Output and IC/nodeset summary:
                 save   8       (current)
                 save   87      (voltage)

    tran: time = 1.457 s     (2.91 %), step = 500 ms          (1 %)
    tran: time = 3.957 s     (7.91 %), step = 500 ms          (1 %)
    tran: time = 6.457 s     (12.9 %), step = 500 ms          (1 %)
    tran: time = 8.957 s     (17.9 %), step = 500 ms          (1 %)
    tran: time = 11.46 s     (22.9 %), step = 500 ms          (1 %)
    tran: time = 13.96 s     (27.9 %), step = 500 ms          (1 %)
    tran: time = 16.46 s     (32.9 %), step = 500 ms          (1 %)
    tran: time = 18.96 s     (37.9 %), step = 500 ms          (1 %)
    tran: time = 21.46 s     (42.9 %), step = 500 ms          (1 %)
    tran: time = 23.96 s     (47.9 %), step = 500 ms          (1 %)
    tran: time = 26.46 s     (52.9 %), step = 500 ms          (1 %)
    tran: time = 28.96 s     (57.9 %), step = 500 ms          (1 %)
    tran: time = 31.46 s     (62.9 %), step = 500 ms          (1 %)
    tran: time = 33.96 s     (67.9 %), step = 500 ms          (1 %)
    tran: time = 36.46 s     (72.9 %), step = 500 ms          (1 %)
    tran: time = 38.96 s     (77.9 %), step = 500 ms          (1 %)
    tran: time = 41.46 s     (82.9 %), step = 500 ms          (1 %)
    tran: time = 43.96 s     (87.9 %), step = 500 ms          (1 %)
    tran: time = 46.46 s     (92.9 %), step = 500 ms          (1 %)
    tran: time = 48.96 s     (97.9 %), step = 500 ms          (1 %)
Number of accepted tran steps =             680

Maximum value achieved for any signal of each quantity: 
V: V(S<0>) = 3.3 V
I: I(V8:p) = 7.144 uA
Maximum value of each quantity, excluding Verilog-A modules or dangling current sources:
V: V(vout_filt) = 3.177 V
I: I(V8:p) = 7.144 uA

~~~~~~~~~~~~~~~~~~~~~~~~~~~~~~~~~
Post-Transient Simulation Summary
~~~~~~~~~~~~~~~~~~~~~~~~~~~~~~~~~
   -   To further speed up simulation, consider
          add ++aps on command line
   -   Non-default settings that could significantly slow down simulation
          errpreset = conservative, default moderate
          reltol = 10e-06, default 100e-06 (conservative)
~~~~~~~~~~~~~~~~~~~~~~~~~~~~~~~~~


During simulation, the CPU load for active processors is :
         0 (29.1 %)      1 (26.9 %)      2 (40.5 %)      3 (10.6 %)
         4 (23.4 %)      5 (31.8 %)      6 (46.5 %)      7 (23.9 %)
         8 (37.3 %)      9 (13.5 %)     10 (15.5 %)     11 (22.2 %)
        12 (30.6 %)     13 (24.0 %)     14 (12.2 %)     15 (20.4 %)
        16 (30.9 %)     17 (15.5 %)     18 (30.1 %)     19 (27.4 %)
        20 (12.2 %)     21 (23.6 %)     22 (38.7 %)     23 (41.2 %)
        24 (23.2 %)     25 (17.2 %)     26 (19.0 %)     27 (9.7 %)
        28 (99.9 %)     29 (18.5 %)     30 (26.1 %)     31 (32.5 %)
        32 (9.7 %)      33 (16.0 %)     34 (20.6 %)     35 (21.3 %)
        36 (30.9 %)     37 (38.2 %)     38 (14.7 %)     39 (22.3 %)
        40 (91.5 %)     41 (9.9 %)      42 (21.6 %)     43 (32.0 %)
        44 (16.8 %)     45 (16.0 %)     46 (38.1 %)     47 (12.8 %)
        Total: 1286.4%
Initial condition solution time: CPU = 2.776 ms, elapsed = 2.78902 ms.
Intrinsic tran analysis time:    CPU = 417.81 ms, elapsed = 419.245 ms.
Total time required for tran analysis `tran': CPU = 423.756 ms, elapsed = 425.699 ms, util. = 99.5%.
Time accumulated: CPU = 41.5287 s, elapsed = 43.3027 s.
Peak resident memory used = 215 Mbytes.


Notice from spectre during transient analysis `tran', during Monte Carlo analysis `mc1'.
    34 warnings suppressed.

finalTimeOP: writing operating point information to rawfile.

Opening the PSF file ../psf/mc1_separate/098/finalTimeOP.info ...
modelParameter: writing model parameter values to rawfile.

Opening the PSF file ../psf/mc1_separate/098/modelParameter.info ...
element: writing instance parameter values to rawfile.

Opening the PSF file ../psf/mc1_separate/098/element.info ...
outputParameter: writing output parameter values to rawfile.

Opening the PSF file ../psf/mc1_separate/098/outputParameter.info ...
designParamVals: writing netlist parameters to rawfile.

Opening the PSFASCII file ../psf/mc1_separate/098/designParamVals.info ...
primitives: writing primitives to rawfile.

Opening the PSFASCII file ../psf/mc1_separate/098/primitives.info.primitives ...
subckts: writing subcircuits to rawfile.

Opening the PSFASCII file ../psf/mc1_separate/098/subckts.info.subckts ...
    mc1: iteration = 98            (98 %), step = 1            (1.01 %)
99  98.99% 

*****************************************************************************************
* 
* INFO: AMS_processOption = C35B4C3
* 
* INFO: Valid Modules  PIP VG5 HIRES
* 
*****************************************************************************************


Notice from spectre during Monte Carlo analysis `mc1'.
    V8: `period' has the unusually large value of 100 s.


***********************************************
Transient Analysis `tran': time = (0 s -> 50 s)
***********************************************

Opening the PSF file ../psf/mc1_separate/099/tran.tran.tran ...

Warning from spectre during check, during IC analysis, during transient analysis `tran', during Monte Carlo analysis `mc1'.
    WARNING (CMI-2943): Parameter checks have been ignored because the valid value for parameter 'trise' could not be found in 'C1'.
    WARNING (CMI-2943): Parameter checks have been ignored because the valid value for parameter 'trise' could not be found in 'I0.R2.CM'.
    WARNING (CMI-2943): Parameter checks have been ignored because the valid value for parameter 'trise' could not be found in 'I0.R2.CS1'.
    WARNING (CMI-2943): Parameter checks have been ignored because the valid value for parameter 'trise' could not be found in 'I0.R2.CS0'.
    WARNING (CMI-2943): Parameter checks have been ignored because the valid value for parameter 'trise' could not be found in 'I0.C3.C1'.
        Further occurrences of this warning will be suppressed.

Convergence achieved in 12 iterations.
DC simulation time: CPU = 2.467 ms, elapsed = 2.46882 ms.
Important parameter values:
    start = 0 s
    outputstart = 0 s
    stop = 50 s
    step = 50 ms
    maxstep = 500 ms
    ic = all
    useprevic = no
    skipdc = no
    reltol = 10e-06
    abstol(V) = 1 uV
    abstol(I) = 1 pA
    temp = 85 C
    tnom = 27 C
    tempeffects = all
    errpreset = conservative
    method = gear2only
    lteratio = 10
    relref = alllocal
    cmin = 0 F
    gmin = 1 pS
    rabsshort = 1 mOhm


Notice from spectre during transient analysis `tran', during Monte Carlo analysis `mc1'.
    Multithreading is disabled due to the size of the design being too small.


Output and IC/nodeset summary:
                 save   8       (current)
                 save   87      (voltage)

    tran: time = 1.534 s     (3.07 %), step = 500 ms          (1 %)
    tran: time = 4.034 s     (8.07 %), step = 500 ms          (1 %)
    tran: time = 6.534 s     (13.1 %), step = 500 ms          (1 %)
    tran: time = 9.034 s     (18.1 %), step = 500 ms          (1 %)
    tran: time = 11.53 s     (23.1 %), step = 500 ms          (1 %)
    tran: time = 14.03 s     (28.1 %), step = 500 ms          (1 %)
    tran: time = 16.53 s     (33.1 %), step = 500 ms          (1 %)
    tran: time = 19.03 s     (38.1 %), step = 500 ms          (1 %)
    tran: time = 21.53 s     (43.1 %), step = 500 ms          (1 %)
    tran: time = 24.03 s     (48.1 %), step = 500 ms          (1 %)
    tran: time = 26.53 s     (53.1 %), step = 500 ms          (1 %)
    tran: time = 29.03 s     (58.1 %), step = 500 ms          (1 %)
    tran: time = 31.53 s     (63.1 %), step = 500 ms          (1 %)
    tran: time = 34.03 s     (68.1 %), step = 500 ms          (1 %)
    tran: time = 36.53 s     (73.1 %), step = 500 ms          (1 %)
    tran: time = 39.03 s     (78.1 %), step = 500 ms          (1 %)
    tran: time = 41.53 s     (83.1 %), step = 500 ms          (1 %)
    tran: time = 44.03 s     (88.1 %), step = 500 ms          (1 %)
    tran: time = 46.53 s     (93.1 %), step = 500 ms          (1 %)
    tran: time = 49.03 s     (98.1 %), step = 500 ms          (1 %)
Number of accepted tran steps =             678

Maximum value achieved for any signal of each quantity: 
V: V(S<0>) = 3.3 V
I: I(V8:p) = 7.06 uA
Maximum value of each quantity, excluding Verilog-A modules or dangling current sources:
V: V(vout_filt) = 3.153 V
I: I(V8:p) = 7.06 uA

~~~~~~~~~~~~~~~~~~~~~~~~~~~~~~~~~
Post-Transient Simulation Summary
~~~~~~~~~~~~~~~~~~~~~~~~~~~~~~~~~
   -   To further speed up simulation, consider
          add ++aps on command line
   -   Non-default settings that could significantly slow down simulation
          errpreset = conservative, default moderate
          reltol = 10e-06, default 100e-06 (conservative)
~~~~~~~~~~~~~~~~~~~~~~~~~~~~~~~~~


During simulation, the CPU load for active processors is :
         0 (29.6 %)      1 (27.0 %)      2 (41.2 %)      3 (10.5 %)
         4 (23.8 %)      5 (31.6 %)      6 (47.0 %)      7 (23.7 %)
         8 (37.3 %)      9 (13.5 %)     10 (15.4 %)     11 (22.1 %)
        12 (30.3 %)     13 (24.8 %)     14 (12.1 %)     15 (20.2 %)
        16 (31.6 %)     17 (15.4 %)     18 (29.8 %)     19 (27.2 %)
        20 (12.1 %)     21 (23.5 %)     22 (38.3 %)     23 (40.8 %)
        24 (23.1 %)     25 (17.2 %)     26 (19.0 %)     27 (10.7 %)
        28 (99.9 %)     29 (18.4 %)     30 (25.9 %)     31 (32.6 %)
        32 (9.7 %)      33 (15.9 %)     34 (20.4 %)     35 (21.1 %)
        36 (30.6 %)     37 (37.8 %)     38 (14.5 %)     39 (22.0 %)
        40 (91.6 %)     41 (9.8 %)      42 (22.5 %)     43 (31.7 %)
        44 (17.7 %)     45 (16.9 %)     46 (37.7 %)     47 (12.9 %)
        Total: 1288.2%
Initial condition solution time: CPU = 2.521 ms, elapsed = 2.52295 ms.
Intrinsic tran analysis time:    CPU = 418.544 ms, elapsed = 420.027 ms.
Total time required for tran analysis `tran': CPU = 423.704 ms, elapsed = 425.857 ms, util. = 99.5%.
Time accumulated: CPU = 41.9949 s, elapsed = 43.7814 s.
Peak resident memory used = 215 Mbytes.


Notice from spectre during transient analysis `tran', during Monte Carlo analysis `mc1'.
    34 warnings suppressed.

finalTimeOP: writing operating point information to rawfile.

Opening the PSF file ../psf/mc1_separate/099/finalTimeOP.info ...
modelParameter: writing model parameter values to rawfile.

Opening the PSF file ../psf/mc1_separate/099/modelParameter.info ...
element: writing instance parameter values to rawfile.

Opening the PSF file ../psf/mc1_separate/099/element.info ...
outputParameter: writing output parameter values to rawfile.

Opening the PSF file ../psf/mc1_separate/099/outputParameter.info ...
designParamVals: writing netlist parameters to rawfile.

Opening the PSFASCII file ../psf/mc1_separate/099/designParamVals.info ...
primitives: writing primitives to rawfile.

Opening the PSFASCII file ../psf/mc1_separate/099/primitives.info.primitives ...
subckts: writing subcircuits to rawfile.

Opening the PSFASCII file ../psf/mc1_separate/099/subckts.info.subckts ...
    mc1: iteration = 99            (99 %), step = 1            (1.01 %)
100 100.00% 

*****************************************************************************************
* 
* INFO: AMS_processOption = C35B4C3
* 
* INFO: Valid Modules  PIP VG5 HIRES
* 
*****************************************************************************************


Notice from spectre during Monte Carlo analysis `mc1'.
    V8: `period' has the unusually large value of 100 s.


***********************************************
Transient Analysis `tran': time = (0 s -> 50 s)
***********************************************

Opening the PSF file ../psf/mc1_separate/100/tran.tran.tran ...

Warning from spectre during check, during IC analysis, during transient analysis `tran', during Monte Carlo analysis `mc1'.
    WARNING (CMI-2943): Parameter checks have been ignored because the valid value for parameter 'trise' could not be found in 'C1'.
    WARNING (CMI-2943): Parameter checks have been ignored because the valid value for parameter 'trise' could not be found in 'I0.R2.CM'.
    WARNING (CMI-2943): Parameter checks have been ignored because the valid value for parameter 'trise' could not be found in 'I0.R2.CS1'.
    WARNING (CMI-2943): Parameter checks have been ignored because the valid value for parameter 'trise' could not be found in 'I0.R2.CS0'.
    WARNING (CMI-2943): Parameter checks have been ignored because the valid value for parameter 'trise' could not be found in 'I0.C3.C1'.
        Further occurrences of this warning will be suppressed.

Convergence achieved in 12 iterations.
DC simulation time: CPU = 2.576 ms, elapsed = 2.57707 ms.
Important parameter values:
    start = 0 s
    outputstart = 0 s
    stop = 50 s
    step = 50 ms
    maxstep = 500 ms
    ic = all
    useprevic = no
    skipdc = no
    reltol = 10e-06
    abstol(V) = 1 uV
    abstol(I) = 1 pA
    temp = 85 C
    tnom = 27 C
    tempeffects = all
    errpreset = conservative
    method = gear2only
    lteratio = 10
    relref = alllocal
    cmin = 0 F
    gmin = 1 pS
    rabsshort = 1 mOhm


Notice from spectre during transient analysis `tran', during Monte Carlo analysis `mc1'.
    Multithreading is disabled due to the size of the design being too small.


Output and IC/nodeset summary:
                 save   8       (current)
                 save   87      (voltage)

    tran: time = 1.262 s     (2.52 %), step = 494.4 ms     (989 m%)
    tran: time = 3.762 s     (7.52 %), step = 500 ms          (1 %)
    tran: time = 6.262 s     (12.5 %), step = 500 ms          (1 %)
    tran: time = 8.762 s     (17.5 %), step = 500 ms          (1 %)
    tran: time = 11.26 s     (22.5 %), step = 500 ms          (1 %)
    tran: time = 13.76 s     (27.5 %), step = 500 ms          (1 %)
    tran: time = 16.26 s     (32.5 %), step = 500 ms          (1 %)
    tran: time = 18.76 s     (37.5 %), step = 500 ms          (1 %)
    tran: time = 21.26 s     (42.5 %), step = 500 ms          (1 %)
    tran: time = 23.76 s     (47.5 %), step = 500 ms          (1 %)
    tran: time = 26.26 s     (52.5 %), step = 500 ms          (1 %)
    tran: time = 28.76 s     (57.5 %), step = 500 ms          (1 %)
    tran: time = 31.26 s     (62.5 %), step = 500 ms          (1 %)
    tran: time = 33.76 s     (67.5 %), step = 500 ms          (1 %)
    tran: time = 36.26 s     (72.5 %), step = 500 ms          (1 %)
    tran: time = 38.76 s     (77.5 %), step = 500 ms          (1 %)
    tran: time = 41.26 s     (82.5 %), step = 500 ms          (1 %)
    tran: time = 43.76 s     (87.5 %), step = 500 ms          (1 %)
    tran: time = 46.26 s     (92.5 %), step = 500 ms          (1 %)
    tran: time = 48.76 s     (97.5 %), step = 500 ms          (1 %)
Number of accepted tran steps =             679

Maximum value achieved for any signal of each quantity: 
V: V(S<0>) = 3.3 V
I: I(V8:p) = 7.45 uA
Maximum value of each quantity, excluding Verilog-A modules or dangling current sources:
V: V(vout_filt) = 3.157 V
I: I(V8:p) = 7.45 uA

~~~~~~~~~~~~~~~~~~~~~~~~~~~~~~~~~
Post-Transient Simulation Summary
~~~~~~~~~~~~~~~~~~~~~~~~~~~~~~~~~
   -   To further speed up simulation, consider
          add ++aps on command line
   -   Non-default settings that could significantly slow down simulation
          errpreset = conservative, default moderate
          reltol = 10e-06, default 100e-06 (conservative)
~~~~~~~~~~~~~~~~~~~~~~~~~~~~~~~~~


During simulation, the CPU load for active processors is :
         0 (30.4 %)      1 (26.8 %)      2 (41.8 %)      3 (10.5 %)
         4 (23.6 %)      5 (31.4 %)      6 (47.6 %)      7 (23.5 %)
         8 (38.0 %)      9 (13.5 %)     10 (15.4 %)     11 (21.9 %)
        12 (30.1 %)     13 (24.9 %)     14 (12.2 %)     15 (20.0 %)
        16 (31.3 %)     17 (15.3 %)     18 (29.5 %)     19 (26.9 %)
        20 (13.0 %)     21 (23.5 %)     22 (38.0 %)     23 (40.4 %)
        24 (23.2 %)     25 (18.0 %)     26 (19.0 %)     27 (10.6 %)
        28 (99.9 %)     29 (18.2 %)     30 (25.6 %)     31 (32.3 %)
        32 (9.6 %)      33 (15.7 %)     34 (20.2 %)     35 (20.9 %)
        36 (30.3 %)     37 (37.4 %)     38 (14.4 %)     39 (21.9 %)
        40 (91.7 %)     41 (9.7 %)      42 (23.3 %)     43 (31.4 %)
        44 (18.5 %)     45 (17.7 %)     46 (37.3 %)     47 (13.0 %)
        Total: 1289.3%
Initial condition solution time: CPU = 2.618 ms, elapsed = 2.62094 ms.
Intrinsic tran analysis time:    CPU = 407.42 ms, elapsed = 408.571 ms.
Total time required for tran analysis `tran': CPU = 412.45 ms, elapsed = 414.158 ms, util. = 99.6%.
Time accumulated: CPU = 42.4488 s, elapsed = 44.247 s.
Peak resident memory used = 215 Mbytes.


Notice from spectre during transient analysis `tran', during Monte Carlo analysis `mc1'.
    34 warnings suppressed.

finalTimeOP: writing operating point information to rawfile.

Opening the PSF file ../psf/mc1_separate/100/finalTimeOP.info ...
modelParameter: writing model parameter values to rawfile.

Opening the PSF file ../psf/mc1_separate/100/modelParameter.info ...
element: writing instance parameter values to rawfile.

Opening the PSF file ../psf/mc1_separate/100/element.info ...
outputParameter: writing output parameter values to rawfile.

Opening the PSF file ../psf/mc1_separate/100/outputParameter.info ...
designParamVals: writing netlist parameters to rawfile.

Opening the PSFASCII file ../psf/mc1_separate/100/designParamVals.info ...
primitives: writing primitives to rawfile.

Opening the PSFASCII file ../psf/mc1_separate/100/primitives.info.primitives ...
subckts: writing subcircuits to rawfile.

Opening the PSFASCII file ../psf/mc1_separate/100/subckts.info.subckts ...
    mc1: iteration = 100          (100 %), step = 1            (1.01 %)
Total time required for montecarlo analysis `mc1': CPU = 42.0314 s, elapsed = 43.3222 s, util. = 97%.
Time accumulated: CPU = 42.4781 s, elapsed = 44.29 s.
Peak resident memory used = 215 Mbytes.

Licensing Information:
Lic Summary:
[16:48:42.517752] Cdslmd servers:3000@lic08.ug.kth.se:29000@lic06.ug.kth.se
[16:48:42.517800] Feature usage summary:
[16:48:42.517801] Virtuoso_Multi_mode_Simulation


Aggregate audit (4:48:42 PM, Wed Apr 15, 2026):
Time used: CPU = 42.5 s, elapsed = 44.3 s, util. = 95.9%.
Time spent in licensing: elapsed = 48.5 ms.
Peak memory used = 215 Mbytes.
Simulation started at: 4:47:58 PM, Wed Apr 15, 2026, ended at: 4:48:42 PM, Wed Apr 15, 2026, with elapsed time (wall clock): 44.3 s.
spectre completes with 0 errors, 522 warnings, and 310 notices.
