
Spectre (R) Circuit Simulator
Version 24.1.0.288.isr5 64bit -- 3 Apr 2025
Copyright (C) 1989-2025 Cadence Design Systems, Inc. All rights reserved worldwide. Cadence and Spectre are registered trademarks of Cadence Design Systems, Inc. All others are the property of their respective holders.

Includes RSA BSAFE(R) Cryptographic or Security Protocol Software from RSA Security, Inc.

User: davidevi   Host: il2244vt26_davidevi   HostID: 11AC2C00   PID: 1100323
Memory  available: 3.0409 TB  physical: 3.2467 TB
Linux   : Rocky Linux release 8.10 (Green Obsidian)
CPU Type: Intel(R) Xeon(R) CPU E7-8857 v2 @ 3.00GHz
        Socket: Processors [Frequency]
        0:       0 [3399.9],  1 [3399.9],  2 [3399.9],  3 [1200.0],  4 [1200.0]
                 5 [3600.0],  6 [2500.0],  7 [1200.0],  8 [3399.9],  9 [1200.0]
                10 [3399.9], 11 [3399.9]
        1:      12 [3399.9], 13 [3399.9], 14 [3600.0], 15 [3600.0], 16 [3399.9]
                17 [3600.0], 18 [3600.0], 19 [3600.0], 20 [3399.9], 21 [3600.0]
                22 [3600.0], 23 [3600.0]
        2:      24 [3600.0], 25 [3600.0], 26 [3399.9], 27 [1200.0], 28 [3399.9]
                29 [3600.0], 30 [1200.0], 31 [3400.0], 32 [3399.9], 33 [1200.0]
                34 [3399.9], 35 [3600.0]
        3:      36 [2300.0], 37 [3392.2], 38 [3600.0], 39 [3600.0], 40 [3600.0]
                41 [3200.0], 42 [3600.0], 43 [1200.0], 44 [3600.0], 45 [3396.2]
                46 [3375.4], 47 [3396.2]
        
System load averages (1min, 5min, 15min) : 23.2 %, 17.3 %, 17.9 %
HPC is enabled


Simulating `input.scs' on il2244vt26_davidevi at 10:27:41 AM, Thur Apr 16, 2026 (process id: 1100323).
Current working directory: /home/davidevi/Desktop/myproject/Sim/VGA/VGA_1_pss_tb/maestro/results/maestro/Interactive.8/15/VGA_VGA_1_pss_tb_1/netlist
Command line:
    /opt/tools/cadence/installs/SPECTRE241/tools/bin/spectre -64  \
        input.scs +escchars +log ../psf/spectre.out -format psfbin  \
        +rtsf -raw ../psf +preset=cx +mt +lqtimeout 900 -maxw 5 -maxn 5  \
        +param /opt/pdk/ams/410/spectre/ams_range.lmts -env ade  \
        +adespetkn=0001089D13A302B663E41FB550AF0DF415A679A322D5069144BF588C12F604E07EF416DC01A319B562BB63D343FF05B645A370F031F93A845FD738821A8E4F9240A879D15D9175FF34986BDD0AF002BA50FD7FD707E002A700AC1C8404FE5AE30EA979D118F874D3349879D118F874D334981031A164CD4F5D7800003656  \
        -ahdllibdir  \
        /home/davidevi/Desktop/myproject/Sim/VGA/VGA_1_pss_tb/maestro/results/maestro/Interactive.8/sharedData/lscsJob522/ahdl/input.ahdlSimDB  \
        +logstatus

Simulation Id: qegVbnkONW975ct0
Licensing Information:
[10:27:41.121722] Configured Lic search path (24.01-s002): 3000@lic08.ug.kth.se:29000@lic06.ug.kth.se

Licensing Information:
[10:27:41.504656] Periodic Lic check successful

Loading /opt/tools/cadence/installs/SPECTRE241/tools.lnx86/cmi/lib/64bit/5.0/libinfineon_sh.so ...
Loading /opt/tools/cadence/installs/SPECTRE241/tools.lnx86/cmi/lib/64bit/5.0/libphilips_I_sh.so ...
Loading /opt/tools/cadence/installs/SPECTRE241/tools.lnx86/cmi/lib/64bit/5.0/libphilips_sh.so ...
Loading /opt/tools/cadence/installs/SPECTRE241/tools.lnx86/cmi/lib/64bit/5.0/libsparam_sh.so ...
Loading /opt/tools/cadence/installs/SPECTRE241/tools.lnx86/cmi/lib/64bit/5.0/libstmodels_sh.so ...

Warning from spectre.
    WARNING (SPECTRE-691): This CPU processor does not support x86 advanced vector extensions instructions. This may affect math operations and slow down the simulation.

Reading file:  /home/davidevi/Desktop/myproject/Sim/VGA/VGA_1_pss_tb/maestro/results/maestro/Interactive.8/15/VGA_VGA_1_pss_tb_1/netlist/input.scs

Notice from spectre during circuit read-in.
    Pre_Configuration file used: /opt/tools/cadence/installs/SPECTRE241/tools.lnx86/spectre/etc/configs/preset.precfg
    Configuration file used: `/opt/tools/cadence/installs/SPECTRE241/tools.lnx86/spectre/etc/configs/preset.cfg'.

Reading file:  /opt/pdk/ams/410/spectre/ams_range.lmts

Warning from spectre during read of parameter soft limits file `/opt/pdk/ams/410/spectre/ams_range.lmts', during circuit read-in.
    WARNING (SPECTRE-8360): line 1511: `ac' is an undefined primitive device.
    WARNING (SPECTRE-8360): line 1512: `ac' is an undefined primitive device.
    WARNING (SPECTRE-8360): line 1513: `ac' is an undefined primitive device.
    WARNING (SPECTRE-8360): line 1514: `ac' is an undefined primitive device.
    WARNING (SPECTRE-8360): line 1515: `ac' is an undefined primitive device.
        Further occurrences of this warning will be suppressed.

Reading file:  /opt/tools/cadence/installs/SPECTRE241/tools.lnx86/spectre/etc/configs/spectre.cfg
Reading file:  /opt/tools/cadence/installs/SPECTRE241/tools.lnx86/spectre/etc/configs/preset.precfg
Reading file:  /opt/pdk/ams/410/spectre/c35/soac/soac.scs
Reading file:  /opt/pdk/ams/410/spectre/c35/processOption.scs
Reading file:  /opt/pdk/ams/410/spectre/c35/process.scs
Reading file:  /opt/pdk/ams/410/spectre/c35/processOption/C35B4C3.scs
Reading file:  /opt/pdk/ams/410/spectre/c35/cmos53.scs
Reading file:  /opt/pdk/ams/410/spectre/c35/res.scs
Reading file:  /opt/pdk/ams/410/spectre/c35/cap.scs
Reading file:  /opt/pdk/ams/410/spectre/c35/bip.scs
Reading file:  /opt/pdk/ams/410/spectre/c35/ind.scs
Reading file:  /opt/pdk/ams/410/spectre/c35/esddiode.scs
Reading link:  /home/davidevi/Desktop/myproject/Sim/VGA/VGA_1_pss_tb/maestro/results/maestro/Interactive.8/15/VGA_VGA_1_pss_tb_1/netlist/netlist
Reading file:  /home/davidevi/Desktop/myproject/Sim/VGA/VGA_1_pss_tb/maestro/results/maestro/Interactive.8/psf/VGA_VGA_1_pss_tb_1/netlist/netlist
Reading file:  /opt/tools/cadence/installs/SPECTRE241/tools.lnx86/spectre/etc/configs/preset.cfg
Time for NDB Parsing: CPU = 177.463 ms, elapsed = 342.076 ms.
Time accumulated: CPU = 356.767 ms, elapsed = 342.09 ms.
Peak resident memory used = 179 Mbytes.

Reading link:  /opt/tools/cadence/installs/SPECTRE241/tools.lnx86/spectre/etc/ahdl/discipline.h
Reading file:  /opt/tools/cadence/installs/SPECTRE241/tools.lnx86/spectre/etc/ahdl/disciplines.vams
Reading link:  /opt/tools/cadence/installs/SPECTRE241/tools.lnx86/spectre/etc/ahdl/constants.h
Reading file:  /opt/tools/cadence/installs/SPECTRE241/tools.lnx86/spectre/etc/ahdl/constants.vams

Warning from spectre during AHDL read-in.
    WARNING (VACOMP-2435): The environment variable CDS_AHDLCMI_ENABLE is no longer supported. Therefore, the simulator will use the default compiled C code flow.

Existing shared object for module bsource_19b458 is up to date.
Installed compiled interface for bsource_19b458.

Warning from spectre during hierarchy flattening.
    WARNING (SFE-3016): The floating node net6 is removed.

Time for Elaboration: CPU = 39.24 ms, elapsed = 40.6449 ms.
Time accumulated: CPU = 396.257 ms, elapsed = 382.984 ms.
Peak resident memory used = 193 Mbytes.


Notice from spectre during hierarchy flattening.
    The value 'psf' specified for the 'checklimitdest' option will no longer be supported in future releases. Use 'spectre -h' to see other recommended values for the 'checklimitdest' option.


*****************************************************************************************
* 
* INFO: AMS_processOption = C35B4C3
* 
* INFO: Valid Modules  PIP VG5 HIRES
* 
*****************************************************************************************


Time for EDB Visiting: CPU = 5.678 ms, elapsed = 5.9309 ms.
Time accumulated: CPU = 402.077 ms, elapsed = 389.056 ms.
Peak resident memory used = 195 Mbytes.

Loading /opt/tools/cadence/installs/SPECTRE241/tools.lnx86/mdl/lib/64bit/libSpectreEH_sh.so ...

Warning from spectre during initial setup.
    WARNING (SPECTRE-17607): Assert `SOAC_rpolyh_vminuspsub' is ignored because it contains an expression which is invalid or not supported by native evaluator. 
    WARNING (SPECTRE-17607): Assert `SOAC_rpolyh_vpluspsub' is ignored because it contains an expression which is invalid or not supported by native evaluator. 
    WARNING (SPECTRE-16460): SOAC_cvarm_vspsub:Specified subcircuit master `cvarm' was not found.
    WARNING (SPECTRE-16462): SOAC_cvarm_vspsub:Error in specification of subcircuit master. Assert is ignored.
    WARNING (SPECTRE-16460): SOAC_cvarm_vbs:Specified subcircuit master `cvarm' was not found.
    WARNING (SPECTRE-16462): SOAC_cvarm_vbs:Error in specification of subcircuit master. Assert is ignored.
    WARNING (SPECTRE-16460): SOAC_cvarm_vgb:Specified subcircuit master `cvarm' was not found.
    WARNING (SPECTRE-16462): SOAC_cvarm_vgb:Error in specification of subcircuit master. Assert is ignored.
    WARNING (SPECTRE-16460): SOAC_cvart_vspsub:Specified subcircuit master `cvart' was not found.
    WARNING (SPECTRE-16462): SOAC_cvart_vspsub:Error in specification of subcircuit master. Assert is ignored.
    WARNING (SPECTRE-16460): SOAC_cvart_vbs:Specified subcircuit master `cvart' was not found.
        Further occurrences of this warning will be suppressed.
    WARNING (SPECTRE-16462): SOAC_cvart_vbs:Error in specification of subcircuit master. Assert is ignored.
        Further occurrences of this warning will be suppressed.
    WARNING (SPECTRE-17607): Assert `SOAC_cpoly_vminuspsub' is ignored because it contains an expression which is invalid or not supported by native evaluator. 
    WARNING (SPECTRE-17607): Assert `SOAC_cpoly_vpluspsub' is ignored because it contains an expression which is invalid or not supported by native evaluator. 
    WARNING (SPECTRE-17607): Assert `SOAC_modp_vbpsub' is ignored because it contains an expression which is invalid or not supported by native evaluator. 
        Further occurrences of this warning will be suppressed.
Notice from spectre during initial setup.
    Multithreading is disabled due to the size of the design being too small.


Netlist title:
        // Point Netlist Generated on: Apr 16 10:27:37 2026


Warning from spectre during initial setup.
    WARNING (SPECTRE-592): Following parameters are disabled because they are ignored or redefined in Spectre X:
        
        
        PSS Parameters:
          errpreset


Global user options:
         psfversion = 1.4.0
               temp = 85
           homotopy = 5
              limit = delta
         compatible = spice2
               gmin = 1e-12
             rforce = 1
           maxnotes = 5
           maxwarns = 5
             digits = 5
               cols = 80
             pivrel = 0.001
           sensfile = ../psf/sens.output
     checklimitdest = psf
     enable_pre_ver = yes
      ignorezerovar = yes
               save = allpub
               tnom = 27
             scalem = 1
              scale = 1

Scoped user options:

Circuit inventory:
              nodes 31
            bsim3v3 33    
     bsource_19b458 2     
          capacitor 38    
            isource 1     
           resistor 1     
            vsource 7     

Analysis and control statement inventory:
               info 7     
                pss 1     
               tran 1     

Output statements:
             .probe 0     
           .measure 0     
               save 0     

Design checks inventory:
          paramtest 53    
             assert 175   


Notice from spectre during initial setup.
    Spectre X preset=cx enabled.
    73 warnings suppressed.

Time for parsing: CPU = 20.71 ms, elapsed = 577.147 ms.
Time accumulated: CPU = 422.91 ms, elapsed = 966.326 ms.
Peak resident memory used = 201 Mbytes.

~~~~~~~~~~~~~~~~~~~~~~
Pre-Simulation Summary
~~~~~~~~~~~~~~~~~~~~~~
   -   (Spectre X) Multi-threading. The recommended number of threads is 1, consider adding +mt=1 on command line.
~~~~~~~~~~~~~~~~~~~~~~

Notice from spectre during transient analysis `tran'.
    No checklimit analysis defined for asserts. A default checklimit analysis 'SpectreChecklimitAnal' has been created with all asserts enabled.


*************************************************
Transient Analysis `tran': time = (0 s -> 100 ms)
*************************************************

Notice from spectre during IC analysis, during transient analysis `tran'.
    Bad pivoting is found during DC analysis. Option dc_pivot_check=yes is recommended for possible improvement of convergence.
Warning from spectre during check, during IC analysis, during transient analysis `tran'.
    WARNING (CMI-2943): Parameter checks have been ignored because the valid value for parameter 'trise' could not be found in 'C1'.
    WARNING (CMI-2943): Parameter checks have been ignored because the valid value for parameter 'trise' could not be found in 'I0.C8<0>_turbo_m4.C1'.
    WARNING (CMI-2943): Parameter checks have been ignored because the valid value for parameter 'trise' could not be found in 'I0.C9<0>_turbo_m8.C1'.
    WARNING (CMI-2943): Parameter checks have been ignored because the valid value for parameter 'trise' could not be found in 'I0.C7<0>_turbo_m2.C1'.
    WARNING (CMI-2943): Parameter checks have been ignored because the valid value for parameter 'trise' could not be found in 'I0.R2.CM'.
        Further occurrences of this warning will be suppressed.

Convergence achieved in 17 iterations.
DC simulation time: CPU = 2.528 ms, elapsed = 2.52891 ms.

Opening the PSF file ../psf/tran.tran.tran ...
Important parameter values:
    start = 0 s
    outputstart = 0 s
    stop = 100 ms
    step = 100 us
    maxstep = 1 ms
    ic = all
    useprevic = no
    skipdc = no
    reltol = 100e-06
    abstol(V) = 1 uV
    abstol(I) = 1 pA
    temp = 85 C
    tnom = 27 C
    tempeffects = all
    errpreset = conservative_sigglobal
    method = gear2only
    lteratio = 10
    relref = sigglobal
    cmin = 0 F
    gmin = 1 pS
    rabsshort = 1 mOhm


Notice from spectre during transient analysis `tran'.
    Multithreading is disabled due to the size of the design being too small.


Output and IC/nodeset summary:
                 save   7       (current)
                 save   30      (voltage)

    tran: time = 2.795 ms     (2.8 %), step = 862.6 us     (863 m%)
    tran: time = 7.795 ms     (7.8 %), step = 1 ms            (1 %)
    tran: time = 12.58 ms    (12.6 %), step = 884.1 us     (884 m%)
    tran: time = 18.41 ms    (18.4 %), step = 1 ms            (1 %)
    tran: time = 22.7 ms     (22.7 %), step = 788.5 us     (789 m%)
    tran: time = 27.55 ms    (27.5 %), step = 1 ms            (1 %)
    tran: time = 33.22 ms    (33.2 %), step = 883 us       (883 m%)
    tran: time = 38.14 ms    (38.1 %), step = 1 ms            (1 %)
    tran: time = 43.31 ms    (43.3 %), step = 820.1 us     (820 m%)
    tran: time = 48.25 ms    (48.3 %), step = 1 ms            (1 %)
    tran: time = 52.96 ms      (53 %), step = 879 us       (879 m%)
    tran: time = 57.85 ms    (57.8 %), step = 1 ms            (1 %)
    tran: time = 63.06 ms    (63.1 %), step = 803.7 us     (804 m%)
    tran: time = 67.95 ms    (67.9 %), step = 1 ms            (1 %)
    tran: time = 72.68 ms    (72.7 %), step = 878.4 us     (878 m%)
    tran: time = 77.53 ms    (77.5 %), step = 1 ms            (1 %)
    tran: time = 82.81 ms    (82.8 %), step = 793.4 us     (793 m%)
    tran: time = 87.66 ms    (87.7 %), step = 1 ms            (1 %)
    tran: time = 93.32 ms    (93.3 %), step = 884.9 us     (885 m%)
    tran: time = 98.25 ms    (98.2 %), step = 1 ms            (1 %)
Number of accepted tran steps =             112

Maximum value achieved for any signal of each quantity: 
V: V(S<0>) = 3.3 V
I: I(V0:p) = 6.451 uA

~~~~~~~~~~~~~~~~~~~~~~~~~~~~~~~~~
Post-Transient Simulation Summary
~~~~~~~~~~~~~~~~~~~~~~~~~~~~~~~~~
   -   Non-default settings that could significantly slow down simulation
          errpreset = conservative_sigglobal, default moderate
~~~~~~~~~~~~~~~~~~~~~~~~~~~~~~~~~


During simulation, the CPU load for active processors is :
         0 (14.9 %)      1 (69.1 %)      2 (15.8 %)      3 (47.8 %)
         4 (37.0 %)      5 (6.6 %)       6 (7.5 %)       7 (13.0 %)
         8 (100.0 %)     9 (47.8 %)     10 (40.7 %)     11 (37.0 %)
        12 (32.3 %)     13 (30.1 %)     14 (17.4 %)     15 (18.9 %)
        16 (55.4 %)     17 (61.3 %)     18 (45.7 %)     19 (9.9 %)
        20 (100.0 %)    21 (12.0 %)     22 (18.3 %)     23 (12.8 %)
        24 (28.6 %)     25 (25.8 %)     26 (20.0 %)     27 (51.1 %)
        28 (50.5 %)     29 (16.7 %)     30 (16.3 %)     31 (7.8 %)
        32 (66.7 %)     33 (21.5 %)     34 (42.4 %)     35 (27.2 %)
        36 (10.8 %)     37 (92.5 %)     38 (15.7 %)     39 (29.7 %)
        40 (17.4 %)     41 (9.9 %)      42 (37.6 %)     43 (41.3 %)
        44 (12.8 %)     45 (100.0 %)    46 (4.5 %)      47 (53.8 %)
        Total: 1651.5%
Initial condition solution time: CPU = 2.571 ms, elapsed = 2.57206 ms.
Intrinsic tran analysis time:    CPU = 22.149 ms, elapsed = 23.752 ms.
Total time required for tran analysis `tran': CPU = 101.274 ms, elapsed = 105.994 ms, util. = 95.5%.
Time accumulated: CPU = 546.458 ms, elapsed = 1.09565 s.
Peak resident memory used = 212 Mbytes.


Notice from spectre.
    12 warnings suppressed.

finalTimeOP: writing operating point information to rawfile.

Opening the PSF file ../psf/finalTimeOP.info ...
Licensing Information:
[10:27:42.423264] Periodic Lic check successful


**************************************************
Periodic Steady-State Analysis `pss': fund = 50 Hz
**************************************************

Warning from spectre during check, during IC analysis, during periodic steady state analysis `pss'.
    WARNING (CMI-2943): Parameter checks have been ignored because the valid value for parameter 'trise' could not be found in 'C1'.
    WARNING (CMI-2943): Parameter checks have been ignored because the valid value for parameter 'trise' could not be found in 'I0.C8<0>_turbo_m4.C1'.
    WARNING (CMI-2943): Parameter checks have been ignored because the valid value for parameter 'trise' could not be found in 'I0.C9<0>_turbo_m8.C1'.
    WARNING (CMI-2943): Parameter checks have been ignored because the valid value for parameter 'trise' could not be found in 'I0.C7<0>_turbo_m2.C1'.
    WARNING (CMI-2943): Parameter checks have been ignored because the valid value for parameter 'trise' could not be found in 'I0.R2.CM'.
        Further occurrences of this warning will be suppressed.

Convergence achieved in 17 iterations.
DC simulation time: CPU = 2.602 ms, elapsed = 2.60305 ms.

==================================
pss `tstab': time = (0 s -> 20 ms)
==================================

Output and IC/nodeset summary:
                 save   7       (current)
                 save   30      (voltage)

Important parameter values in tstab integration:
    start = 0 s
    outputstart = 0 s
    stop = 20 ms
    period = 20 ms
    maxperiods = 20
    step = 20 us
    maxstep = 800 us
    ic = all
    useprevic = no
    skipdc = no
    reltol = 1e-03
    abstol(V) = 1 uV
    abstol(I) = 1 pA
    temp = 85 C
    tnom = 27 C
    tempeffects = all
    method = traponly
    lteratio = 3.5
    relref = sigglobal
    cmin = 0 F
    gmin = 1 pS
    rabsshort = 1 mOhm

    pss: time = 523.9 us    (2.62 %), step = 265.1 us     (1.33 %)
    pss: time = 2.198 ms      (11 %), step = 800 us          (4 %)
    pss: time = 2.998 ms      (15 %), step = 800 us          (4 %)
    pss: time = 3.798 ms      (19 %), step = 800 us          (4 %)
    pss: time = 4.598 ms      (23 %), step = 800 us          (4 %)
    pss: time = 6.198 ms      (31 %), step = 800 us          (4 %)
    pss: time = 6.998 ms      (35 %), step = 800 us          (4 %)
    pss: time = 7.798 ms      (39 %), step = 800 us          (4 %)
    pss: time = 8.598 ms      (43 %), step = 800 us          (4 %)
    pss: time = 10.2 ms       (51 %), step = 800 us          (4 %)
    pss: time = 11 ms         (55 %), step = 800 us          (4 %)
    pss: time = 11.8 ms       (59 %), step = 800 us          (4 %)
    pss: time = 12.6 ms       (63 %), step = 800 us          (4 %)
    pss: time = 14.2 ms       (71 %), step = 800 us          (4 %)
    pss: time = 15 ms         (75 %), step = 800 us          (4 %)
    pss: time = 15.8 ms       (79 %), step = 800 us          (4 %)
    pss: time = 16.6 ms       (83 %), step = 800 us          (4 %)
    pss: time = 18.2 ms       (91 %), step = 800 us          (4 %)
    pss: time = 19 ms         (95 %), step = 800 us          (4 %)
    pss: time = 20 ms        (100 %), step = 500.8 us      (2.5 %)
Total time required for tstab analysis `pss': CPU = 6.221 ms, elapsed = 6.22082 ms.
Time accumulated: CPU = 569.57 ms, elapsed = 1.13666 s.
Peak resident memory used = 213 Mbytes.

Conv norm = 169, max dV(vout_filt) = -57.998 mV, took 10 ms.

Important parameter values in pss iteration:
    start = 0 s
    outputstart = 0 s
    stop = 20 ms
    period = 20 ms
    maxperiods = 20
    steadyratio = 10e-03
    step = 20 us
    maxstep = 100 us
    ic = all
    useprevic = no
    skipdc = no
    reltol = 100e-06
    abstol(V) = 1 uV
    abstol(I) = 1 pA
    temp = 85 C
    tnom = 27 C
    tempeffects = all
    errpreset = conservative
    method = gear2only
    lteratio = 10
    relref = sigglobal
    cmin = 0 F
    gmin = 1 pS
    rabsshort = 1 mOhm


Notice from spectre during periodic steady state analysis `pss'.
    12 warnings suppressed.


============================
`pss': time = (0 s -> 20 ms)
============================
    pss: time = 512.5 us    (2.56 %), step = 12.5 us     (62.5 m%)
    pss: time = 1.512 ms    (7.56 %), step = 12.5 us     (62.5 m%)
    pss: time = 2.512 ms    (12.6 %), step = 12.5 us     (62.5 m%)
    pss: time = 3.512 ms    (17.6 %), step = 12.5 us     (62.5 m%)
    pss: time = 4.5 ms      (22.5 %), step = 12.5 us     (62.5 m%)
    pss: time = 5.5 ms      (27.5 %), step = 12.5 us     (62.5 m%)
    pss: time = 6.5 ms      (32.5 %), step = 12.5 us     (62.5 m%)
    pss: time = 7.5 ms      (37.5 %), step = 12.5 us     (62.5 m%)
    pss: time = 8.5 ms      (42.5 %), step = 12.5 us     (62.5 m%)
    pss: time = 9.5 ms      (47.5 %), step = 12.5 us     (62.5 m%)
    pss: time = 10.5 ms     (52.5 %), step = 12.5 us     (62.5 m%)
    pss: time = 11.5 ms     (57.5 %), step = 12.5 us     (62.5 m%)
    pss: time = 12.5 ms     (62.5 %), step = 12.5 us     (62.5 m%)
    pss: time = 13.5 ms     (67.5 %), step = 12.5 us     (62.5 m%)
    pss: time = 14.5 ms     (72.5 %), step = 12.5 us     (62.5 m%)
    pss: time = 15.5 ms     (77.5 %), step = 12.5 us     (62.5 m%)
    pss: time = 16.5 ms     (82.5 %), step = 12.5 us     (62.5 m%)
    pss: time = 17.5 ms     (87.5 %), step = 12.5 us     (62.5 m%)
    pss: time = 18.5 ms     (92.5 %), step = 12.5 us     (62.5 m%)
    pss: time = 19.51 ms    (97.6 %), step = 12.5 us     (62.5 m%)
Conv norm = 83.2, max dV(vout_filt) = -8.13953 mV, took 340 ms.


============================
`pss': time = (0 s -> 20 ms)
============================
    pss: time = 512.5 us    (2.56 %), step = 12.5 us     (62.5 m%)
    pss: time = 1.512 ms    (7.56 %), step = 12.5 us     (62.5 m%)
    pss: time = 2.512 ms    (12.6 %), step = 12.5 us     (62.5 m%)
    pss: time = 3.512 ms    (17.6 %), step = 12.5 us     (62.5 m%)
    pss: time = 4.5 ms      (22.5 %), step = 12.5 us     (62.5 m%)
    pss: time = 5.5 ms      (27.5 %), step = 12.5 us     (62.5 m%)
    pss: time = 6.5 ms      (32.5 %), step = 12.5 us     (62.5 m%)
    pss: time = 7.5 ms      (37.5 %), step = 12.5 us     (62.5 m%)
    pss: time = 8.5 ms      (42.5 %), step = 12.5 us     (62.5 m%)
    pss: time = 9.5 ms      (47.5 %), step = 12.5 us     (62.5 m%)
    pss: time = 10.5 ms     (52.5 %), step = 12.5 us     (62.5 m%)
    pss: time = 11.5 ms     (57.5 %), step = 12.5 us     (62.5 m%)
    pss: time = 12.5 ms     (62.5 %), step = 12.5 us     (62.5 m%)
    pss: time = 13.5 ms     (67.5 %), step = 12.5 us     (62.5 m%)
    pss: time = 14.5 ms     (72.5 %), step = 12.5 us     (62.5 m%)
    pss: time = 15.5 ms     (77.5 %), step = 12.5 us     (62.5 m%)
    pss: time = 16.5 ms     (82.5 %), step = 12.5 us     (62.5 m%)
    pss: time = 17.5 ms     (87.5 %), step = 12.5 us     (62.5 m%)
    pss: time = 18.5 ms     (92.5 %), step = 12.5 us     (62.5 m%)
    pss: time = 19.51 ms    (97.6 %), step = 12.5 us     (62.5 m%)
Conv norm = 542e-03, max dV(vout_filt) = -52.9168 uV, took 360 ms.


Opening the PSF file ../psf/pss.td.pss ...

Opening the PSF file ../psf/pss.fd.pss ...

============================
`pss': time = (0 s -> 20 ms)
============================
    pss: time = 512.5 us    (2.56 %), step = 12.5 us     (62.5 m%)
    pss: time = 1.512 ms    (7.56 %), step = 12.5 us     (62.5 m%)
    pss: time = 2.512 ms    (12.6 %), step = 12.5 us     (62.5 m%)
    pss: time = 3.512 ms    (17.6 %), step = 12.5 us     (62.5 m%)
    pss: time = 4.5 ms      (22.5 %), step = 12.5 us     (62.5 m%)
    pss: time = 5.5 ms      (27.5 %), step = 12.5 us     (62.5 m%)
    pss: time = 6.5 ms      (32.5 %), step = 12.5 us     (62.5 m%)
    pss: time = 7.5 ms      (37.5 %), step = 12.5 us     (62.5 m%)
    pss: time = 8.5 ms      (42.5 %), step = 12.5 us     (62.5 m%)
    pss: time = 9.5 ms      (47.5 %), step = 12.5 us     (62.5 m%)
    pss: time = 10.5 ms     (52.5 %), step = 12.5 us     (62.5 m%)
    pss: time = 11.5 ms     (57.5 %), step = 12.5 us     (62.5 m%)
    pss: time = 12.5 ms     (62.5 %), step = 12.5 us     (62.5 m%)
    pss: time = 13.5 ms     (67.5 %), step = 12.5 us     (62.5 m%)
    pss: time = 14.5 ms     (72.5 %), step = 12.5 us     (62.5 m%)
    pss: time = 15.5 ms     (77.5 %), step = 12.5 us     (62.5 m%)
    pss: time = 16.5 ms     (82.5 %), step = 12.5 us     (62.5 m%)
    pss: time = 17.5 ms     (87.5 %), step = 12.5 us     (62.5 m%)
    pss: time = 18.5 ms     (92.5 %), step = 12.5 us     (62.5 m%)
    pss: time = 19.51 ms    (97.6 %), step = 12.5 us     (62.5 m%)

Maximum value achieved for any signal of each quantity: 
V: V(S<0>) = 3.3 V
I: I(V0:p) = 6.451 uA
Initial condition solution time: CPU = 2.647 ms, elapsed = 2.65002 ms.
pss: The steady-state solution was achieved in 3 iterations.
Number of accepted pss steps =             1600
Total time required for pss analysis `pss': CPU = 1.10434 s, elapsed = 1.12232 s, util. = 98.4%.
Time accumulated: CPU = 1.65678 s, elapsed = 2.22745 s.
Peak resident memory used = 219 Mbytes.

modelParameter: writing model parameter values to rawfile.

Opening the PSF file ../psf/modelParameter.info ...
element: writing instance parameter values to rawfile.

Opening the PSF file ../psf/element.info ...
outputParameter: writing output parameter values to rawfile.

Opening the PSF file ../psf/outputParameter.info ...
designParamVals: writing netlist parameters to rawfile.

Opening the PSFASCII file ../psf/designParamVals.info ...
primitives: writing primitives to rawfile.

Opening the PSFASCII file ../psf/primitives.info.primitives ...
subckts: writing subcircuits to rawfile.

Opening the PSFASCII file ../psf/subckts.info.subckts ...
Licensing Information:
Lic Summary:
[10:27:43.036803] Cdslmd servers:3000@lic08.ug.kth.se:29000@lic06.ug.kth.se
[10:27:43.561154] Feature usage summary:
[10:27:43.561155] Virtuoso_Multi_mode_Simulation
[10:27:43.561160] Spectre_X_MMSIM_Lk


Aggregate audit (10:27:43 AM, Thur Apr 16, 2026):
Time used: CPU = 1.68 s, elapsed = 2.26 s, util. = 74.4%.
Time spent in licensing: elapsed = 74.5 ms.
Peak memory used = 219 Mbytes.
Simulation started at: 10:27:41 AM, Thur Apr 16, 2026, ended at: 10:27:43 AM, Thur Apr 16, 2026, with elapsed time (wall clock): 2.26 s.
spectre completes with 0 errors, 34 warnings, and 13 notices.
