
Spectre (R) Circuit Simulator
Version 24.1.0.288.isr5 64bit -- 3 Apr 2025
Copyright (C) 1989-2025 Cadence Design Systems, Inc. All rights reserved worldwide. Cadence and Spectre are registered trademarks of Cadence Design Systems, Inc. All others are the property of their respective holders.

Includes RSA BSAFE(R) Cryptographic or Security Protocol Software from RSA Security, Inc.

User: davidevi   Host: il2244vt26_davidevi   HostID: 11AC2C00   PID: 1049283
Memory  available: 3.0436 TB  physical: 3.2467 TB
Linux   : Rocky Linux release 8.10 (Green Obsidian)
CPU Type: Intel(R) Xeon(R) CPU E7-8857 v2 @ 3.00GHz
        Socket: Processors [Frequency]
        0:       0 [2800.0],  1 [2400.0],  2 [3600.0],  3 [1200.0],  4 [2400.0]
                 5 [2948.3],  6 [2400.0],  7 [2700.0],  8 [3600.0],  9 [1200.0]
                10 [1200.0], 11 [2767.2]
        1:      12 [3600.0], 13 [3600.0], 14 [2999.9], 15 [3600.0], 16 [3600.0]
                17 [2999.9], 18 [3600.0], 19 [3600.0], 20 [3600.0], 21 [3600.0]
                22 [3600.0], 23 [3600.0]
        2:      24 [3600.0], 25 [3300.0], 26 [2500.0], 27 [2500.0], 28 [2500.0]
                29 [1200.0], 30 [2500.0], 31 [2999.9], 32 [2400.0], 33 [2999.9]
                34 [3600.0], 35 [2500.0]
        3:      36 [3600.0], 37 [1200.0], 38 [1200.0], 39 [2999.9], 40 [1200.0]
                41 [2999.9], 42 [1200.0], 43 [2000.0], 44 [2999.9], 45 [2500.0]
                46 [2600.0], 47 [1200.0]
        
System load averages (1min, 5min, 15min) : 23.3 %, 18.6 %, 16.5 %
HPC is enabled


Simulating `input.scs' on il2244vt26_davidevi at 9:07:21 AM, Thur Apr 16, 2026 (process id: 1049283).
Current working directory: /home/davidevi/Desktop/myproject/Sim/VGA/VGA_1_tb/adexl/results/data/MonteCarlo.3/5/Linerity_MC/groupRunDataDir/netlist
Command line:
    /opt/tools/cadence/installs/SPECTRE241/tools/bin/spectre -64  \
        input.scs +escchars +log ../psf/spectre.out -format psfbin  \
        +rtsf -raw ../psf +aps +mt +lqtimeout 900 -maxw 5 -maxn 5  \
        +param /opt/pdk/ams/410/spectre/ams_range.lmts -env ade  \
        -ahdllibdir  \
        /home/davidevi/Desktop/myproject/Sim/VGA/VGA_1_tb/adexl/results/data/MonteCarlo.3/sharedData/Job474/ahdl/input.ahdlSimDB  \
        +logstatus  \
        +adespetkn=0001089D13A302B663E41FB550AF0DF415A679A322D5069144BF588C12F604E07EF416DC01A319B562BB63D345CB038245A351CD07CB06AB53C15F8E50E04F9240A979D15D9175FF34986BDD0AF002BA50FD7FD707E002A700AC1C8119F747EA0EAC79D12DF874D3349879D118F874D334981031BE30D21B5D780000365D

Simulation Id: wQmKOEgYrxsYRnt1
Licensing Information:
[09:07:21.121754] Configured Lic search path (24.01-s002): 3000@lic08.ug.kth.se:29000@lic06.ug.kth.se

Licensing Information:
[09:07:21.492400] Periodic Lic check successful

Loading /opt/tools/cadence/installs/SPECTRE241/tools.lnx86/cmi/lib/64bit/5.0/libinfineon_sh.so ...
Loading /opt/tools/cadence/installs/SPECTRE241/tools.lnx86/cmi/lib/64bit/5.0/libphilips_I_sh.so ...
Loading /opt/tools/cadence/installs/SPECTRE241/tools.lnx86/cmi/lib/64bit/5.0/libphilips_sh.so ...
Loading /opt/tools/cadence/installs/SPECTRE241/tools.lnx86/cmi/lib/64bit/5.0/libsparam_sh.so ...
Loading /opt/tools/cadence/installs/SPECTRE241/tools.lnx86/cmi/lib/64bit/5.0/libstmodels_sh.so ...

Warning from spectre.
    WARNING (SPECTRE-691): This CPU processor does not support x86 advanced vector extensions instructions. This may affect math operations and slow down the simulation.

Reading file:  /home/davidevi/Desktop/myproject/Sim/VGA/VGA_1_tb/adexl/results/data/MonteCarlo.3/5/Linerity_MC/groupRunDataDir/netlist/input.scs
Reading file:  /opt/pdk/ams/410/spectre/ams_range.lmts

Warning from spectre during read of parameter soft limits file `/opt/pdk/ams/410/spectre/ams_range.lmts', during circuit read-in.
    WARNING (SPECTRE-8360): line 1511: `ac' is an undefined primitive device.
    WARNING (SPECTRE-8360): line 1512: `ac' is an undefined primitive device.
    WARNING (SPECTRE-8360): line 1513: `ac' is an undefined primitive device.
    WARNING (SPECTRE-8360): line 1514: `ac' is an undefined primitive device.
    WARNING (SPECTRE-8360): line 1515: `ac' is an undefined primitive device.
        Further occurrences of this warning will be suppressed.

Reading file:  /opt/tools/cadence/installs/SPECTRE241/tools.lnx86/spectre/etc/configs/spectre.cfg
Reading file:  /opt/pdk/ams/410/spectre/c35/soac/soac.scs
Reading file:  /opt/pdk/ams/410/spectre/c35/soac/processOption.scs
Reading file:  /opt/pdk/ams/410/spectre/c35/soac/process.scs
Reading file:  /opt/pdk/ams/410/spectre/c35/soac/soac.va

Warning from spectre during AHDL read-in.
    WARNING (VACOMP-2435): The environment variable CDS_AHDLCMI_ENABLE is no longer supported. Therefore, the simulator will use the default compiled C code flow.

Reading link:  /opt/tools/cadence/installs/SPECTRE241/tools.lnx86/spectre/etc/ahdl/constants.h
Reading file:  /opt/tools/cadence/installs/SPECTRE241/tools.lnx86/spectre/etc/ahdl/constants.vams
Reading link:  /opt/tools/cadence/installs/SPECTRE241/tools.lnx86/spectre/etc/ahdl/discipline.h
Reading file:  /opt/tools/cadence/installs/SPECTRE241/tools.lnx86/spectre/etc/ahdl/disciplines.vams
Reading file:  /opt/pdk/ams/410/spectre/c35/processOption/C35B4C3.scs
Reading file:  /opt/pdk/ams/410/spectre/c35/soac/cmos53.scs
Reading file:  /opt/pdk/ams/410/spectre/c35/soac/res.scs
Reading file:  /opt/pdk/ams/410/spectre/c35/soac/cap.scs
Reading file:  /opt/pdk/ams/410/spectre/c35/soac/bip.scs
Reading file:  /opt/pdk/ams/410/spectre/c35/soac/ind.scs
Reading file:  /opt/pdk/ams/410/spectre/c35/soac/esddiode.scs
Time for NDB Parsing: CPU = 177.363 ms, elapsed = 325.806 ms.
Time accumulated: CPU = 392.611 ms, elapsed = 325.808 ms.
Peak resident memory used = 175 Mbytes.

Existing shared object for module modn_ahdl is up to date.
Installed compiled interface for modn_ahdl.
Existing shared object for module modp_ahdl is up to date.
Installed compiled interface for modp_ahdl.
Existing shared object for module cpoly_ahdl is up to date.
Installed compiled interface for cpoly_ahdl.
Existing shared object for module rpolyh_ahdl is up to date.
Installed compiled interface for rpolyh_ahdl.
Existing shared object for module bsource_19b458 is up to date.
Installed compiled interface for bsource_19b458.
Time for Elaboration: CPU = 60.501 ms, elapsed = 64.7249 ms.
Time accumulated: CPU = 453.25 ms, elapsed = 390.67 ms.
Peak resident memory used = 188 Mbytes.


Notice from spectre during hierarchy flattening.
    The value 'psf' specified for the 'checklimitdest' option will no longer be supported in future releases. Use 'spectre -h' to see other recommended values for the 'checklimitdest' option.


*****************************************************************************************
* 
* INFO: AMS_processOption = C35B4C3
* 
* INFO: Valid Modules  PIP VG5 HIRES
* 
*****************************************************************************************


Time for EDB Visiting: CPU = 8.891 ms, elapsed = 8.89111 ms.
Time accumulated: CPU = 462.266 ms, elapsed = 399.686 ms.
Peak resident memory used = 191 Mbytes.

Loading /opt/tools/cadence/installs/SPECTRE241/tools.lnx86/mdl/lib/64bit/libSpectreEH_sh.so ...

Warning from spectre during initial setup.
    WARNING (SPECTRE-16460): SOAC_cvarm_vspsub:Specified subcircuit master `cvarm' was not found.
    WARNING (SPECTRE-16462): SOAC_cvarm_vspsub:Error in specification of subcircuit master. Assert is ignored.
    WARNING (SPECTRE-16460): SOAC_cvarm_vbs:Specified subcircuit master `cvarm' was not found.
    WARNING (SPECTRE-16462): SOAC_cvarm_vbs:Error in specification of subcircuit master. Assert is ignored.
    WARNING (SPECTRE-16460): SOAC_cvarm_vgb:Specified subcircuit master `cvarm' was not found.
    WARNING (SPECTRE-16462): SOAC_cvarm_vgb:Error in specification of subcircuit master. Assert is ignored.
    WARNING (SPECTRE-16460): SOAC_cvart_vspsub:Specified subcircuit master `cvart' was not found.
    WARNING (SPECTRE-16462): SOAC_cvart_vspsub:Error in specification of subcircuit master. Assert is ignored.
    WARNING (SPECTRE-16460): SOAC_cvart_vbs:Specified subcircuit master `cvart' was not found.
        Further occurrences of this warning will be suppressed.
    WARNING (SPECTRE-16462): SOAC_cvart_vbs:Error in specification of subcircuit master. Assert is ignored.
        Further occurrences of this warning will be suppressed.
Notice from spectre during topology check.
    Only one connection to the following 54 nodes:
        I0.MN6.psub!
        I0.MN5.psub!
        I0.MN4.psub!
        I0.MN3.psub!
        I0.MN2.psub!
        Further occurrences of this notice will be suppressed.
Notice from spectre during initial setup.
    Multithreading is disabled due to the size of the design being too small.


Netlist title:
        // Point Netlist Generated on: Apr 16 09:07:20 2026


Global user options:
         psfversion = 1.4.0
            vabstol = 1e-06
            iabstol = 1e-12
               temp = 85
           homotopy = 5
              limit = delta
         compatible = spice2
               gmin = 1e-12
             rforce = 1
           maxnotes = 5
           maxwarns = 5
             digits = 5
               cols = 80
             pivrel = 0.001
           sensfile = ../psf/sens.output
     checklimitdest = psf
     enable_pre_ver = yes
      ignorezerovar = yes
               save = allpub
             reltol = 0.0001
               tnom = 27
             scalem = 1
              scale = 1

Scoped user options:

Circuit inventory:
              nodes 88
            bsim3v3 35    
     bsource_19b458 2     
          capacitor 38    
         cpoly_ahdl 17    
            isource 1     
          modn_ahdl 19    
          modp_ahdl 16    
           resistor 1     
        rpolyh_ahdl 2     
            vsource 8     

Analysis and control statement inventory:
                 dc 1     
               info 8     
         montecarlo 1     
               tran 1     

Output statements:
             .probe 0     
           .measure 0     
               save 0     

Design checks inventory:
          paramtest 55    
             assert 175   


Notice from spectre during initial setup.
    APS enabled.
    1 notice suppressed.
    72 warnings suppressed.

Time for parsing: CPU = 18.602 ms, elapsed = 649.377 ms.
Time accumulated: CPU = 480.97 ms, elapsed = 1.04917 s.
Peak resident memory used = 198 Mbytes.

~~~~~~~~~~~~~~~~~~~~~~
Pre-Simulation Summary
~~~~~~~~~~~~~~~~~~~~~~
   -   (APS) Multi-threading. The recommended number of threads is 1, consider adding +mt=1 on command line.
~~~~~~~~~~~~~~~~~~~~~~

*************************************************
Monte Carlo Analysis `mc1': iteration = (1 -> 50)
*************************************************
Important parameter values:
    seed = 12345
    sampling = lds
    variations = all
    firstrun = 1
    numruns = 50
    nullmfactorcorrelation = no
    donominal = yes
    method = standard

**** Performing nominal run for `mc1'

******************
DC Analysis `dcOp'
******************

Notice from spectre during DC analysis `dcOp', during Monte Carlo analysis `mc1'.
    No checklimit analysis defined for asserts. A default checklimit analysis 'SpectreChecklimitAnal' has been created with all asserts enabled.


Opening the PSF file ../psf/nom/dcOp.dc ...
Important parameter values:
    reltol = 100e-06
    abstol(V) = 1 uV
    abstol(I) = 1 pA
    temp = 85 C
    tnom = 27 C
    tempeffects = all
    gmindc = 1 pS
    rabsshort = 1 mOhm

Notice from spectre during DC analysis `dcOp', during Monte Carlo analysis `mc1'.
    Bad pivoting is found during DC analysis. Option dc_pivot_check=yes is recommended for possible improvement of convergence.
SOAC: I0.I5.MP0.soac_m1       modp V(D,S): LEAVING@  0us ;
SOAC: I0.I5.MP0.soac_m1       modp V(D,B): LEAVING@  0us ;
SOAC: I0.I1.MP0.soac_m1       modp V(D,S): LEAVING@  0us ;
SOAC: I0.I1.MP0.soac_m1       modp V(D,B): LEAVING@  0us ;
SOAC: I0.I2.MP0.soac_m1       modp V(D,S): LEAVING@  0us ;
SOAC: I0.I2.MP0.soac_m1       modp V(D,B): LEAVING@  0us ;
SOAC: I0.I3.MP0.soac_m1       modp V(D,S): LEAVING@  0us ;
SOAC: I0.I3.MP0.soac_m1       modp V(D,B): LEAVING@  0us ;

Maximum value achieved for any signal of each quantity: 
V: V(net2) = 3.63 V
I: I(V0:p) = 6.464 uA
Maximum value of each quantity, excluding Verilog-A modules or dangling current sources:
V: V(vout_filt) = 1.6 V
I: I(V0:p) = 6.464 uA

Warning from spectre during check, during DC analysis `dcOp', during Monte Carlo analysis `mc1'.
    WARNING (CMI-2943): Parameter checks have been ignored because the valid value for parameter 'trise' could not be found in 'C1'.
    WARNING (CMI-2943): Parameter checks have been ignored because the valid value for parameter 'trise' could not be found in 'I0.R2.CM'.
    WARNING (CMI-2943): Parameter checks have been ignored because the valid value for parameter 'trise' could not be found in 'I0.R2.CS1'.
    WARNING (CMI-2943): Parameter checks have been ignored because the valid value for parameter 'trise' could not be found in 'I0.R2.CS0'.
    WARNING (CMI-2943): Parameter checks have been ignored because the valid value for parameter 'trise' could not be found in 'I0.C8<3>.C1'.
        Further occurrences of this warning will be suppressed.

Convergence achieved in 18 iterations.

Opening the PSF file ../psf/nom/dcOpViolations.violations ...
DC simulation time: CPU = 89.076 ms, elapsed = 95.494 ms.
Total time required for dc analysis `dcOp': CPU = 89.199 ms, elapsed = 95.6159 ms, util. = 93.3%.
Time accumulated: CPU = 594.269 ms, elapsed = 1.17 s.
Peak resident memory used = 207 Mbytes.


Notice from spectre during Monte Carlo analysis `mc1'.
    34 warnings suppressed.

dcOpInfo: writing operating point information to rawfile.

Opening the PSF file ../psf/nom/dcOpInfo.info ...

************************************************
Transient Analysis `tran': time = (0 s -> 40 ms)
************************************************

Notice from spectre during IC analysis, during transient analysis `tran', during Monte Carlo analysis `mc1'.
    Bad pivoting is found during DC analysis. Option dc_pivot_check=yes is recommended for possible improvement of convergence.
Warning from spectre during check, during IC analysis, during transient analysis `tran', during Monte Carlo analysis `mc1'.
    WARNING (CMI-2943): Parameter checks have been ignored because the valid value for parameter 'trise' could not be found in 'C1'.
    WARNING (CMI-2943): Parameter checks have been ignored because the valid value for parameter 'trise' could not be found in 'I0.R2.CM'.
    WARNING (CMI-2943): Parameter checks have been ignored because the valid value for parameter 'trise' could not be found in 'I0.R2.CS1'.
    WARNING (CMI-2943): Parameter checks have been ignored because the valid value for parameter 'trise' could not be found in 'I0.R2.CS0'.
    WARNING (CMI-2943): Parameter checks have been ignored because the valid value for parameter 'trise' could not be found in 'I0.C8<3>.C1'.
        Further occurrences of this warning will be suppressed.

Convergence achieved in 2 iterations.
DC simulation time: CPU = 1.093 ms, elapsed = 1.10197 ms.

Opening the PSF file ../psf/nom/tran.tran.tran ...
Important parameter values:
    start = 0 s
    outputstart = 0 s
    stop = 40 ms
    step = 40 us
    maxstep = 400 us
    ic = all
    useprevic = no
    skipdc = no
    reltol = 10e-06
    abstol(V) = 1 uV
    abstol(I) = 1 pA
    temp = 85 C
    tnom = 27 C
    tempeffects = all
    errpreset = conservative
    method = gear2only
    lteratio = 10
    relref = alllocal
    cmin = 0 F
    gmin = 1 pS
    rabsshort = 1 mOhm


Notice from spectre during transient analysis `tran', during Monte Carlo analysis `mc1'.
    Multithreading is disabled due to the size of the design being too small.


Output and IC/nodeset summary:
                 save   8       (current)
                 save   87      (voltage)

SOAC: I0.I5.MP0.soac_m1       modp V(D,S): LEAVING@  0us ;
SOAC: I0.I5.MP0.soac_m1       modp V(D,B): LEAVING@  0us ;
SOAC: I0.I1.MP0.soac_m1       modp V(D,S): LEAVING@  0us ;
SOAC: I0.I1.MP0.soac_m1       modp V(D,B): LEAVING@  0us ;
SOAC: I0.I2.MP0.soac_m1       modp V(D,S): LEAVING@  0us ;
SOAC: I0.I2.MP0.soac_m1       modp V(D,B): LEAVING@  0us ;
SOAC: I0.I3.MP0.soac_m1       modp V(D,S): LEAVING@  0us ;
SOAC: I0.I3.MP0.soac_m1       modp V(D,B): LEAVING@  0us ;
    tran: time = 1.019 ms    (2.55 %), step = 48.59 us     (121 m%)
    tran: time = 3.033 ms    (7.58 %), step = 47.52 us     (119 m%)
    tran: time = 5.047 ms    (12.6 %), step = 46.68 us     (117 m%)
    tran: time = 7.013 ms    (17.5 %), step = 49.12 us     (123 m%)
    tran: time = 9.027 ms    (22.6 %), step = 47.96 us     (120 m%)
    tran: time = 11.04 ms    (27.6 %), step = 47.03 us     (118 m%)
    tran: time = 13.01 ms    (32.5 %), step = 49.71 us     (124 m%)
    tran: time = 15.02 ms    (37.6 %), step = 48.44 us     (121 m%)
    tran: time = 17.03 ms    (42.6 %), step = 47.4 us      (119 m%)
    tran: time = 19 ms       (47.5 %), step = 50 us        (125 m%)
    tran: time = 21.02 ms    (52.5 %), step = 48.96 us     (122 m%)
    tran: time = 23.03 ms    (57.6 %), step = 47.82 us     (120 m%)
    tran: time = 25.04 ms    (62.6 %), step = 46.92 us     (117 m%)
    tran: time = 27.01 ms    (67.5 %), step = 49.52 us     (124 m%)
    tran: time = 29.02 ms    (72.6 %), step = 48.29 us     (121 m%)
    tran: time = 31.04 ms    (77.6 %), step = 47.28 us     (118 m%)
    tran: time = 33 ms       (82.5 %), step = 50 us        (125 m%)
    tran: time = 35.02 ms    (87.5 %), step = 48.8 us      (122 m%)
    tran: time = 37.03 ms    (92.6 %), step = 47.68 us     (119 m%)
    tran: time = 39.04 ms    (97.6 %), step = 46.81 us     (117 m%)
Number of accepted tran steps =             851

Maximum value achieved for any signal of each quantity: 
V: V(net2) = 3.63 V
I: I(V0:p) = 6.464 uA
Maximum value of each quantity, excluding Verilog-A modules or dangling current sources:
V: V(vout_filt) = 1.614 V
I: I(V0:p) = 6.464 uA

~~~~~~~~~~~~~~~~~~~~~~~~~~~~~~~~~
Post-Transient Simulation Summary
~~~~~~~~~~~~~~~~~~~~~~~~~~~~~~~~~
   -   To further speed up simulation, consider
          add ++aps on command line
   -   Non-default settings that could significantly slow down simulation
          errpreset = conservative, default moderate
          reltol = 10e-06, default 100e-06 (conservative)
~~~~~~~~~~~~~~~~~~~~~~~~~~~~~~~~~


During simulation, the CPU load for active processors is :
         0 (24.2 %)      1 (19.5 %)      2 (66.0 %)      3 (3.8 %)
         4 (6.2 %)       5 (6.2 %)       6 (9.9 %)       7 (15.0 %)
         8 (36.6 %)      9 (11.8 %)     10 (40.4 %)     11 (14.2 %)
        12 (7.9 %)      13 (6.8 %)      14 (4.4 %)      15 (3.1 %)
        16 (80.6 %)     17 (26.5 %)     18 (30.4 %)     19 (6.8 %)
        20 (21.0 %)     21 (13.5 %)     22 (2.5 %)      23 (28.1 %)
        24 (1.9 %)      25 (3.7 %)      26 (2.5 %)      28 (1.9 %)
        29 (1.9 %)      30 (1.2 %)      31 (100.0 %)    32 (3.7 %)
        33 (98.2 %)     34 (3.0 %)      35 (2.5 %)      36 (8.1 %)
        37 (3.8 %)      38 (5.6 %)      39 (100.0 %)    40 (35.6 %)
        41 (8.2 %)      42 (8.2 %)      43 (3.7 %)      44 (66.5 %)
        45 (4.4 %)      46 (2.5 %)      47 (42.2 %)     
        Total: 995.2%
Initial condition solution time: CPU = 1.146 ms, elapsed = 1.14799 ms.
Intrinsic tran analysis time:    CPU = 509.461 ms, elapsed = 510.986 ms.

Opening the PSF file ../psf/nom/tranViolations.violations ...
Total time required for tran analysis `tran': CPU = 516.466 ms, elapsed = 521.263 ms, util. = 99.1%.
Time accumulated: CPU = 1.11948 s, elapsed = 1.70267 s.
Peak resident memory used = 210 Mbytes.


Notice from spectre during transient analysis `tran', during Monte Carlo analysis `mc1'.
    34 warnings suppressed.

finalTimeOP: writing operating point information to rawfile.

Opening the PSF file ../psf/nom/finalTimeOP.info ...
modelParameter: writing model parameter values to rawfile.

Opening the PSF file ../psf/nom/modelParameter.info ...
element: writing instance parameter values to rawfile.

Opening the PSF file ../psf/nom/element.info ...
outputParameter: writing output parameter values to rawfile.

Opening the PSF file ../psf/nom/outputParameter.info ...
designParamVals: writing netlist parameters to rawfile.

Opening the PSFASCII file ../psf/nom/designParamVals.info ...
primitives: writing primitives to rawfile.

Opening the PSFASCII file ../psf/nom/primitives.info.primitives ...
subckts: writing subcircuits to rawfile.

Opening the PSFASCII file ../psf/nom/subckts.info.subckts ...
Opening iteration number and data-directory mapping file:  /home/davidevi/Desktop/myproject/Sim/VGA/VGA_1_tb/adexl/results/data/MonteCarlo.3/5/Linerity_MC/groupRunDataDir/netlist/../psf/mc1.mapping

Statistical parameters:
    Defined process parameters: 629
    Defined mismatch parameters (subckt based): 86
    Non-referenced mismatch parameters: 80
    Number of random variables: 718
    Gaussian truncation for process parameters: 4.00 sigma
    Gaussian truncation for mismatch parameters: 4.00 sigma


Opening the PSF file ../psf/mc1_dcOp.montecarlo ...

Opening the PSF file ../psf/mc1_dcOpInfo.montecarlo ...

Opening the PSF file ../psf/mc1_tran.montecarlo ...

Opening the PSF file ../psf/mc1_finalTimeOP.montecarlo ...

Opening the PSF file ../psf/mc1_modelParameter.montecarlo ...

Opening the PSF file ../psf/mc1_element.montecarlo ...

Opening the PSF file ../psf/mc1_outputParameter.montecarlo ...

Opening the PSF file ../psf/mc1_designParamVals.montecarlo ...

Opening the PSF file ../psf/mc1_primitives.montecarlo ...

Opening the PSF file ../psf/mc1_subckts.montecarlo ...

**** Performing monte carlo loop for `mc1'

1   0.00% 

*****************************************************************************************
* 
* INFO: AMS_processOption = C35B4C3
* 
* INFO: Valid Modules  PIP VG5 HIRES
* 
*****************************************************************************************


******************
DC Analysis `dcOp'
******************

Opening the PSF file ../psf/mc1_separate/001/dcOp.dc ...
Important parameter values:
    reltol = 100e-06
    abstol(V) = 1 uV
    abstol(I) = 1 pA
    temp = 85 C
    tnom = 27 C
    tempeffects = all
    gmindc = 1 pS
    rabsshort = 1 mOhm

Notice from spectre at iteration = 1 during DC analysis `dcOp', during Monte Carlo analysis `mc1'.
    Bad pivoting is found during DC analysis. Option dc_pivot_check=yes is recommended for possible improvement of convergence.
SOAC: I0.I5.MP0.soac_m1       modp V(D,S): LEAVING@  0us ;
SOAC: I0.I5.MP0.soac_m1       modp V(D,B): LEAVING@  0us ;
SOAC: I0.I1.MP0.soac_m1       modp V(D,S): LEAVING@  0us ;
SOAC: I0.I1.MP0.soac_m1       modp V(D,B): LEAVING@  0us ;
SOAC: I0.I2.MP0.soac_m1       modp V(D,S): LEAVING@  0us ;
SOAC: I0.I2.MP0.soac_m1       modp V(D,B): LEAVING@  0us ;
SOAC: I0.I3.MP0.soac_m1       modp V(D,S): LEAVING@  0us ;
SOAC: I0.I3.MP0.soac_m1       modp V(D,B): LEAVING@  0us ;

Maximum value achieved for any signal of each quantity: 
V: V(net2) = 3.63 V
I: I(V0:p) = 6.264 uA
Maximum value of each quantity, excluding Verilog-A modules or dangling current sources:
V: V(vout_filt) = 1.6 V
I: I(V0:p) = 6.264 uA

Warning from spectre at iteration = 1 during check, during DC analysis `dcOp', during Monte Carlo analysis `mc1'.
    WARNING (CMI-2943): Parameter checks have been ignored because the valid value for parameter 'trise' could not be found in 'C1'.
    WARNING (CMI-2943): Parameter checks have been ignored because the valid value for parameter 'trise' could not be found in 'I0.R2.CM'.
    WARNING (CMI-2943): Parameter checks have been ignored because the valid value for parameter 'trise' could not be found in 'I0.R2.CS1'.
    WARNING (CMI-2943): Parameter checks have been ignored because the valid value for parameter 'trise' could not be found in 'I0.R2.CS0'.
    WARNING (CMI-2943): Parameter checks have been ignored because the valid value for parameter 'trise' could not be found in 'I0.C8<3>.C1'.
        Further occurrences of this warning will be suppressed.

Convergence achieved in 18 iterations.

Opening the PSF file ../psf/mc1_dcOpViolations.montecarlo ...

Opening the PSF file ../psf/mc1_separate/001/dcOpViolations.violations ...
DC simulation time: CPU = 9.209 ms, elapsed = 14.3108 ms.
Total time required for dc analysis `dcOp': CPU = 9.708 ms, elapsed = 14.8072 ms, util. = 65.6%.
Time accumulated: CPU = 1.20747 s, elapsed = 1.81298 s.
Peak resident memory used = 212 Mbytes.


Notice from spectre at iteration = 1 during Monte Carlo analysis `mc1'.
    34 warnings suppressed.

dcOpInfo: writing operating point information to rawfile.

Opening the PSF file ../psf/mc1_separate/001/dcOpInfo.info ...

************************************************
Transient Analysis `tran': time = (0 s -> 40 ms)
************************************************

Opening the PSF file ../psf/mc1_separate/001/tran.tran.tran ...

Notice from spectre at iteration = 1 during IC analysis, during transient analysis `tran', during Monte Carlo analysis `mc1'.
    Bad pivoting is found during DC analysis. Option dc_pivot_check=yes is recommended for possible improvement of convergence.
Warning from spectre at iteration = 1 during check, during IC analysis, during transient analysis `tran', during Monte Carlo analysis `mc1'.
    WARNING (CMI-2943): Parameter checks have been ignored because the valid value for parameter 'trise' could not be found in 'C1'.
    WARNING (CMI-2943): Parameter checks have been ignored because the valid value for parameter 'trise' could not be found in 'I0.R2.CM'.
    WARNING (CMI-2943): Parameter checks have been ignored because the valid value for parameter 'trise' could not be found in 'I0.R2.CS1'.
    WARNING (CMI-2943): Parameter checks have been ignored because the valid value for parameter 'trise' could not be found in 'I0.R2.CS0'.
    WARNING (CMI-2943): Parameter checks have been ignored because the valid value for parameter 'trise' could not be found in 'I0.C8<3>.C1'.
        Further occurrences of this warning will be suppressed.

Convergence achieved in 18 iterations.
DC simulation time: CPU = 2.765 ms, elapsed = 2.76613 ms.
Important parameter values:
    start = 0 s
    outputstart = 0 s
    stop = 40 ms
    step = 40 us
    maxstep = 400 us
    ic = all
    useprevic = no
    skipdc = no
    reltol = 10e-06
    abstol(V) = 1 uV
    abstol(I) = 1 pA
    temp = 85 C
    tnom = 27 C
    tempeffects = all
    errpreset = conservative
    method = gear2only
    lteratio = 10
    relref = alllocal
    cmin = 0 F
    gmin = 1 pS
    rabsshort = 1 mOhm


Notice from spectre at iteration = 1 during transient analysis `tran', during Monte Carlo analysis `mc1'.
    Multithreading is disabled due to the size of the design being too small.


Output and IC/nodeset summary:
                 save   8       (current)
                 save   87      (voltage)

SOAC: I0.I5.MP0.soac_m1       modp V(D,S): LEAVING@  0us ;
SOAC: I0.I5.MP0.soac_m1       modp V(D,B): LEAVING@  0us ;
SOAC: I0.I1.MP0.soac_m1       modp V(D,S): LEAVING@  0us ;
SOAC: I0.I1.MP0.soac_m1       modp V(D,B): LEAVING@  0us ;
SOAC: I0.I2.MP0.soac_m1       modp V(D,S): LEAVING@  0us ;
SOAC: I0.I2.MP0.soac_m1       modp V(D,B): LEAVING@  0us ;
SOAC: I0.I3.MP0.soac_m1       modp V(D,S): LEAVING@  0us ;
SOAC: I0.I3.MP0.soac_m1       modp V(D,B): LEAVING@  0us ;
    tran: time = 1.021 ms    (2.55 %), step = 48.49 us     (121 m%)
    tran: time = 3.034 ms    (7.59 %), step = 47.43 us     (119 m%)
    tran: time = 5.001 ms    (12.5 %), step = 50 us        (125 m%)
    tran: time = 7.015 ms    (17.5 %), step = 49 us        (123 m%)
    tran: time = 9.029 ms    (22.6 %), step = 47.85 us     (120 m%)
    tran: time = 11.04 ms    (27.6 %), step = 46.94 us     (117 m%)
    tran: time = 13.01 ms    (32.5 %), step = 49.55 us     (124 m%)
    tran: time = 15.02 ms    (37.6 %), step = 48.31 us     (121 m%)
    tran: time = 17.04 ms    (42.6 %), step = 47.3 us      (118 m%)
    tran: time = 19 ms       (47.5 %), step = 50 us        (125 m%)
    tran: time = 21.02 ms    (52.5 %), step = 48.81 us     (122 m%)
    tran: time = 23.03 ms    (57.6 %), step = 47.69 us     (119 m%)
    tran: time = 25.04 ms    (62.6 %), step = 46.82 us     (117 m%)
    tran: time = 27.01 ms    (67.5 %), step = 49.34 us     (123 m%)
    tran: time = 29.02 ms    (72.6 %), step = 48.14 us     (120 m%)
    tran: time = 31.04 ms    (77.6 %), step = 47.16 us     (118 m%)
    tran: time = 33.01 ms    (82.5 %), step = 49.94 us     (125 m%)
    tran: time = 35.02 ms    (87.5 %), step = 48.63 us     (122 m%)
    tran: time = 37.03 ms    (92.6 %), step = 47.54 us     (119 m%)
    tran: time = 39.05 ms    (97.6 %), step = 46.71 us     (117 m%)
Number of accepted tran steps =             851

Maximum value achieved for any signal of each quantity: 
V: V(net2) = 3.63 V
I: I(V0:p) = 6.264 uA
Maximum value of each quantity, excluding Verilog-A modules or dangling current sources:
V: V(vout_filt) = 1.614 V
I: I(V0:p) = 6.264 uA

~~~~~~~~~~~~~~~~~~~~~~~~~~~~~~~~~
Post-Transient Simulation Summary
~~~~~~~~~~~~~~~~~~~~~~~~~~~~~~~~~
   -   To further speed up simulation, consider
          add ++aps on command line
   -   Non-default settings that could significantly slow down simulation
          errpreset = conservative, default moderate
          reltol = 10e-06, default 100e-06 (conservative)
~~~~~~~~~~~~~~~~~~~~~~~~~~~~~~~~~


During simulation, the CPU load for active processors is :
         0 (23.3 %)      1 (15.2 %)      2 (75.7 %)      3 (3.6 %)
         4 (4.9 %)       5 (7.6 %)       6 (8.1 %)       7 (12.1 %)
         8 (50.4 %)      9 (9.3 %)      10 (29.6 %)     11 (10.6 %)
        12 (9.6 %)      13 (5.8 %)      14 (4.9 %)      15 (7.6 %)
        16 (59.2 %)     17 (22.9 %)     18 (49.8 %)     19 (5.4 %)
        20 (15.9 %)     21 (28.3 %)     22 (1.8 %)      23 (20.6 %)
        24 (1.8 %)      25 (3.5 %)      26 (2.2 %)      28 (1.8 %)
        29 (2.2 %)      30 (1.3 %)      31 (100.0 %)    32 (3.1 %)
        33 (93.9 %)     34 (4.0 %)      35 (2.2 %)      36 (8.9 %)
        37 (5.4 %)      38 (5.4 %)      39 (100.0 %)    40 (45.6 %)
        41 (6.8 %)      42 (12.2 %)     43 (5.3 %)      44 (48.9 %)
        45 (11.6 %)     46 (3.2 %)      47 (31.1 %)     
        Total: 983.5%
Initial condition solution time: CPU = 2.797 ms, elapsed = 2.79784 ms.
Intrinsic tran analysis time:    CPU = 507.497 ms, elapsed = 509 ms.

Opening the PSF file ../psf/mc1_tranViolations.montecarlo ...

Opening the PSF file ../psf/mc1_separate/001/tranViolations.violations ...
Total time required for tran analysis `tran': CPU = 515.898 ms, elapsed = 520.876 ms, util. = 99%.
Time accumulated: CPU = 1.73025 s, elapsed = 2.34295 s.
Peak resident memory used = 213 Mbytes.


Notice from spectre during transient analysis `tran', during Monte Carlo analysis `mc1'.
    34 warnings suppressed.

finalTimeOP: writing operating point information to rawfile.

Opening the PSF file ../psf/mc1_separate/001/finalTimeOP.info ...
modelParameter: writing model parameter values to rawfile.

Opening the PSF file ../psf/mc1_separate/001/modelParameter.info ...
element: writing instance parameter values to rawfile.

Opening the PSF file ../psf/mc1_separate/001/element.info ...
outputParameter: writing output parameter values to rawfile.

Opening the PSF file ../psf/mc1_separate/001/outputParameter.info ...
designParamVals: writing netlist parameters to rawfile.

Opening the PSFASCII file ../psf/mc1_separate/001/designParamVals.info ...
primitives: writing primitives to rawfile.

Opening the PSFASCII file ../psf/mc1_separate/001/primitives.info.primitives ...
subckts: writing subcircuits to rawfile.

Opening the PSFASCII file ../psf/mc1_separate/001/subckts.info.subckts ...
2   2.04% 

*****************************************************************************************
* 
* INFO: AMS_processOption = C35B4C3
* 
* INFO: Valid Modules  PIP VG5 HIRES
* 
*****************************************************************************************


******************
DC Analysis `dcOp'
******************

Opening the PSF file ../psf/mc1_separate/002/dcOp.dc ...
Important parameter values:
    reltol = 100e-06
    abstol(V) = 1 uV
    abstol(I) = 1 pA
    temp = 85 C
    tnom = 27 C
    tempeffects = all
    gmindc = 1 pS
    rabsshort = 1 mOhm

Notice from spectre during DC analysis `dcOp', during Monte Carlo analysis `mc1'.
    Bad pivoting is found during DC analysis. Option dc_pivot_check=yes is recommended for possible improvement of convergence.
SOAC: I0.I5.MP0.soac_m1       modp V(D,S): LEAVING@  0us ;
SOAC: I0.I5.MP0.soac_m1       modp V(D,B): LEAVING@  0us ;
SOAC: I0.I1.MP0.soac_m1       modp V(D,S): LEAVING@  0us ;
SOAC: I0.I1.MP0.soac_m1       modp V(D,B): LEAVING@  0us ;
SOAC: I0.I2.MP0.soac_m1       modp V(D,S): LEAVING@  0us ;
SOAC: I0.I2.MP0.soac_m1       modp V(D,B): LEAVING@  0us ;
SOAC: I0.I3.MP0.soac_m1       modp V(D,S): LEAVING@  0us ;
SOAC: I0.I3.MP0.soac_m1       modp V(D,B): LEAVING@  0us ;

Maximum value achieved for any signal of each quantity: 
V: V(net2) = 3.63 V
I: I(V0:p) = 6.489 uA
Maximum value of each quantity, excluding Verilog-A modules or dangling current sources:
V: V(vout_filt) = 1.6 V
I: I(V0:p) = 6.489 uA

Warning from spectre during check, during DC analysis `dcOp', during Monte Carlo analysis `mc1'.
    WARNING (CMI-2943): Parameter checks have been ignored because the valid value for parameter 'trise' could not be found in 'C1'.
    WARNING (CMI-2943): Parameter checks have been ignored because the valid value for parameter 'trise' could not be found in 'I0.R2.CM'.
    WARNING (CMI-2943): Parameter checks have been ignored because the valid value for parameter 'trise' could not be found in 'I0.R2.CS1'.
    WARNING (CMI-2943): Parameter checks have been ignored because the valid value for parameter 'trise' could not be found in 'I0.R2.CS0'.
    WARNING (CMI-2943): Parameter checks have been ignored because the valid value for parameter 'trise' could not be found in 'I0.C8<3>.C1'.
        Further occurrences of this warning will be suppressed.

Convergence achieved in 18 iterations.

Opening the PSF file ../psf/mc1_separate/002/dcOpViolations.violations ...
DC simulation time: CPU = 7.871 ms, elapsed = 11.7888 ms.
Total time required for dc analysis `dcOp': CPU = 8.309 ms, elapsed = 12.2261 ms, util. = 68%.
Time accumulated: CPU = 1.77599 s, elapsed = 2.40315 s.
Peak resident memory used = 213 Mbytes.


Notice from spectre during Monte Carlo analysis `mc1'.
    34 warnings suppressed.

dcOpInfo: writing operating point information to rawfile.

Opening the PSF file ../psf/mc1_separate/002/dcOpInfo.info ...

************************************************
Transient Analysis `tran': time = (0 s -> 40 ms)
************************************************

Opening the PSF file ../psf/mc1_separate/002/tran.tran.tran ...

Notice from spectre during IC analysis, during transient analysis `tran', during Monte Carlo analysis `mc1'.
    Bad pivoting is found during DC analysis. Option dc_pivot_check=yes is recommended for possible improvement of convergence.
Warning from spectre during check, during IC analysis, during transient analysis `tran', during Monte Carlo analysis `mc1'.
    WARNING (CMI-2943): Parameter checks have been ignored because the valid value for parameter 'trise' could not be found in 'C1'.
    WARNING (CMI-2943): Parameter checks have been ignored because the valid value for parameter 'trise' could not be found in 'I0.R2.CM'.
    WARNING (CMI-2943): Parameter checks have been ignored because the valid value for parameter 'trise' could not be found in 'I0.R2.CS1'.
    WARNING (CMI-2943): Parameter checks have been ignored because the valid value for parameter 'trise' could not be found in 'I0.R2.CS0'.
    WARNING (CMI-2943): Parameter checks have been ignored because the valid value for parameter 'trise' could not be found in 'I0.C8<3>.C1'.
        Further occurrences of this warning will be suppressed.

Convergence achieved in 18 iterations.
DC simulation time: CPU = 2.685 ms, elapsed = 2.68507 ms.
Important parameter values:
    start = 0 s
    outputstart = 0 s
    stop = 40 ms
    step = 40 us
    maxstep = 400 us
    ic = all
    useprevic = no
    skipdc = no
    reltol = 10e-06
    abstol(V) = 1 uV
    abstol(I) = 1 pA
    temp = 85 C
    tnom = 27 C
    tempeffects = all
    errpreset = conservative
    method = gear2only
    lteratio = 10
    relref = alllocal
    cmin = 0 F
    gmin = 1 pS
    rabsshort = 1 mOhm


Notice from spectre during transient analysis `tran', during Monte Carlo analysis `mc1'.
    Multithreading is disabled due to the size of the design being too small.


Output and IC/nodeset summary:
                 save   8       (current)
                 save   87      (voltage)

SOAC: I0.I5.MP0.soac_m1       modp V(D,S): LEAVING@  0us ;
SOAC: I0.I5.MP0.soac_m1       modp V(D,B): LEAVING@  0us ;
SOAC: I0.I1.MP0.soac_m1       modp V(D,S): LEAVING@  0us ;
SOAC: I0.I1.MP0.soac_m1       modp V(D,B): LEAVING@  0us ;
SOAC: I0.I2.MP0.soac_m1       modp V(D,S): LEAVING@  0us ;
SOAC: I0.I2.MP0.soac_m1       modp V(D,B): LEAVING@  0us ;
SOAC: I0.I3.MP0.soac_m1       modp V(D,S): LEAVING@  0us ;
SOAC: I0.I3.MP0.soac_m1       modp V(D,B): LEAVING@  0us ;
    tran: time = 1.021 ms    (2.55 %), step = 48.48 us     (121 m%)
    tran: time = 3.034 ms    (7.59 %), step = 47.43 us     (119 m%)
    tran: time = 5.001 ms    (12.5 %), step = 50 us        (125 m%)
    tran: time = 7.015 ms    (17.5 %), step = 49 us        (122 m%)
    tran: time = 9.029 ms    (22.6 %), step = 47.84 us     (120 m%)
    tran: time = 11.04 ms    (27.6 %), step = 46.94 us     (117 m%)
    tran: time = 13.01 ms    (32.5 %), step = 49.55 us     (124 m%)
    tran: time = 15.02 ms    (37.6 %), step = 48.31 us     (121 m%)
    tran: time = 17.04 ms    (42.6 %), step = 47.29 us     (118 m%)
    tran: time = 19 ms       (47.5 %), step = 50 us        (125 m%)
    tran: time = 21.02 ms    (52.5 %), step = 48.81 us     (122 m%)
    tran: time = 23.03 ms    (57.6 %), step = 47.69 us     (119 m%)
    tran: time = 25.04 ms    (62.6 %), step = 46.82 us     (117 m%)
    tran: time = 27.01 ms    (67.5 %), step = 49.35 us     (123 m%)
    tran: time = 29.02 ms    (72.6 %), step = 48.15 us     (120 m%)
    tran: time = 31.04 ms    (77.6 %), step = 47.17 us     (118 m%)
    tran: time = 33.01 ms    (82.5 %), step = 49.94 us     (125 m%)
    tran: time = 35.02 ms    (87.5 %), step = 48.63 us     (122 m%)
    tran: time = 37.03 ms    (92.6 %), step = 47.55 us     (119 m%)
    tran: time = 39.05 ms    (97.6 %), step = 46.71 us     (117 m%)
Number of accepted tran steps =             851

Maximum value achieved for any signal of each quantity: 
V: V(net2) = 3.63 V
I: I(V0:p) = 6.489 uA
Maximum value of each quantity, excluding Verilog-A modules or dangling current sources:
V: V(vout_filt) = 1.614 V
I: I(V0:p) = 6.489 uA

~~~~~~~~~~~~~~~~~~~~~~~~~~~~~~~~~
Post-Transient Simulation Summary
~~~~~~~~~~~~~~~~~~~~~~~~~~~~~~~~~
   -   To further speed up simulation, consider
          add ++aps on command line
   -   Non-default settings that could significantly slow down simulation
          errpreset = conservative, default moderate
          reltol = 10e-06, default 100e-06 (conservative)
~~~~~~~~~~~~~~~~~~~~~~~~~~~~~~~~~


During simulation, the CPU load for active processors is :
         0 (23.4 %)      1 (12.8 %)      2 (80.7 %)      3 (2.9 %)
         4 (4.3 %)       5 (6.0 %)       6 (7.1 %)       7 (9.6 %)
         8 (60.0 %)      9 (11.3 %)     10 (24.9 %)     11 (9.9 %)
        12 (10.1 %)     13 (4.9 %)      14 (4.3 %)      15 (27.0 %)
        16 (47.4 %)     17 (18.9 %)     18 (43.6 %)     19 (5.7 %)
        20 (13.4 %)     21 (39.4 %)     22 (12.9 %)     23 (17.5 %)
        24 (9.4 %)      25 (6.6 %)      26 (3.5 %)      27 (3.9 %)
        28 (2.1 %)      29 (1.8 %)      30 (1.8 %)      31 (100.0 %)
        32 (3.2 %)      33 (81.4 %)     34 (4.6 %)      35 (3.5 %)
        36 (9.9 %)      37 (5.3 %)      38 (6.7 %)      39 (100.0 %)
        40 (43.2 %)     41 (6.8 %)      42 (14.2 %)     43 (7.4 %)
        44 (40.0 %)     45 (10.9 %)     46 (4.7 %)      47 (25.9 %)
        Total: 994.7%
Initial condition solution time: CPU = 2.717 ms, elapsed = 2.71893 ms.
Intrinsic tran analysis time:    CPU = 509.68 ms, elapsed = 511.282 ms.

Opening the PSF file ../psf/mc1_separate/002/tranViolations.violations ...
Total time required for tran analysis `tran': CPU = 517.573 ms, elapsed = 522.739 ms, util. = 99%.
Time accumulated: CPU = 2.30005 s, elapsed = 2.9346 s.
Peak resident memory used = 214 Mbytes.


Notice from spectre during transient analysis `tran', during Monte Carlo analysis `mc1'.
    34 warnings suppressed.

finalTimeOP: writing operating point information to rawfile.

Opening the PSF file ../psf/mc1_separate/002/finalTimeOP.info ...
modelParameter: writing model parameter values to rawfile.

Opening the PSF file ../psf/mc1_separate/002/modelParameter.info ...
element: writing instance parameter values to rawfile.

Opening the PSF file ../psf/mc1_separate/002/element.info ...
outputParameter: writing output parameter values to rawfile.

Opening the PSF file ../psf/mc1_separate/002/outputParameter.info ...
designParamVals: writing netlist parameters to rawfile.

Opening the PSFASCII file ../psf/mc1_separate/002/designParamVals.info ...
primitives: writing primitives to rawfile.

Opening the PSFASCII file ../psf/mc1_separate/002/primitives.info.primitives ...
subckts: writing subcircuits to rawfile.

Opening the PSFASCII file ../psf/mc1_separate/002/subckts.info.subckts ...
3   4.08% 

*****************************************************************************************
* 
* INFO: AMS_processOption = C35B4C3
* 
* INFO: Valid Modules  PIP VG5 HIRES
* 
*****************************************************************************************


******************
DC Analysis `dcOp'
******************

Opening the PSF file ../psf/mc1_separate/003/dcOp.dc ...
Important parameter values:
    reltol = 100e-06
    abstol(V) = 1 uV
    abstol(I) = 1 pA
    temp = 85 C
    tnom = 27 C
    tempeffects = all
    gmindc = 1 pS
    rabsshort = 1 mOhm

Notice from spectre during DC analysis `dcOp', during Monte Carlo analysis `mc1'.
    Bad pivoting is found during DC analysis. Option dc_pivot_check=yes is recommended for possible improvement of convergence.
SOAC: I0.I5.MP0.soac_m1       modp V(D,S): LEAVING@  0us ;
SOAC: I0.I5.MP0.soac_m1       modp V(D,B): LEAVING@  0us ;
SOAC: I0.I1.MP0.soac_m1       modp V(D,S): LEAVING@  0us ;
SOAC: I0.I1.MP0.soac_m1       modp V(D,B): LEAVING@  0us ;
SOAC: I0.I2.MP0.soac_m1       modp V(D,S): LEAVING@  0us ;
SOAC: I0.I2.MP0.soac_m1       modp V(D,B): LEAVING@  0us ;
SOAC: I0.I3.MP0.soac_m1       modp V(D,S): LEAVING@  0us ;
SOAC: I0.I3.MP0.soac_m1       modp V(D,B): LEAVING@  0us ;

Maximum value achieved for any signal of each quantity: 
V: V(net2) = 3.63 V
I: I(V0:p) = 6.388 uA
Maximum value of each quantity, excluding Verilog-A modules or dangling current sources:
V: V(vout_filt) = 1.6 V
I: I(V0:p) = 6.388 uA

Warning from spectre during check, during DC analysis `dcOp', during Monte Carlo analysis `mc1'.
    WARNING (CMI-2943): Parameter checks have been ignored because the valid value for parameter 'trise' could not be found in 'C1'.
    WARNING (CMI-2943): Parameter checks have been ignored because the valid value for parameter 'trise' could not be found in 'I0.R2.CM'.
    WARNING (CMI-2943): Parameter checks have been ignored because the valid value for parameter 'trise' could not be found in 'I0.R2.CS1'.
    WARNING (CMI-2943): Parameter checks have been ignored because the valid value for parameter 'trise' could not be found in 'I0.R2.CS0'.
    WARNING (CMI-2943): Parameter checks have been ignored because the valid value for parameter 'trise' could not be found in 'I0.C8<3>.C1'.
        Further occurrences of this warning will be suppressed.

Convergence achieved in 20 iterations.

Opening the PSF file ../psf/mc1_separate/003/dcOpViolations.violations ...
DC simulation time: CPU = 9.088 ms, elapsed = 12.9261 ms.
Total time required for dc analysis `dcOp': CPU = 9.589 ms, elapsed = 13.4261 ms, util. = 71.4%.
Time accumulated: CPU = 2.34758 s, elapsed = 2.99772 s.
Peak resident memory used = 214 Mbytes.


Notice from spectre during Monte Carlo analysis `mc1'.
    34 warnings suppressed.

dcOpInfo: writing operating point information to rawfile.

Opening the PSF file ../psf/mc1_separate/003/dcOpInfo.info ...

************************************************
Transient Analysis `tran': time = (0 s -> 40 ms)
************************************************

Opening the PSF file ../psf/mc1_separate/003/tran.tran.tran ...

Notice from spectre during IC analysis, during transient analysis `tran', during Monte Carlo analysis `mc1'.
    Bad pivoting is found during DC analysis. Option dc_pivot_check=yes is recommended for possible improvement of convergence.
Warning from spectre during check, during IC analysis, during transient analysis `tran', during Monte Carlo analysis `mc1'.
    WARNING (CMI-2943): Parameter checks have been ignored because the valid value for parameter 'trise' could not be found in 'C1'.
    WARNING (CMI-2943): Parameter checks have been ignored because the valid value for parameter 'trise' could not be found in 'I0.R2.CM'.
    WARNING (CMI-2943): Parameter checks have been ignored because the valid value for parameter 'trise' could not be found in 'I0.R2.CS1'.
    WARNING (CMI-2943): Parameter checks have been ignored because the valid value for parameter 'trise' could not be found in 'I0.R2.CS0'.
    WARNING (CMI-2943): Parameter checks have been ignored because the valid value for parameter 'trise' could not be found in 'I0.C8<3>.C1'.
        Further occurrences of this warning will be suppressed.

Convergence achieved in 20 iterations.
DC simulation time: CPU = 3.088 ms, elapsed = 3.09014 ms.
Important parameter values:
    start = 0 s
    outputstart = 0 s
    stop = 40 ms
    step = 40 us
    maxstep = 400 us
    ic = all
    useprevic = no
    skipdc = no
    reltol = 10e-06
    abstol(V) = 1 uV
    abstol(I) = 1 pA
    temp = 85 C
    tnom = 27 C
    tempeffects = all
    errpreset = conservative
    method = gear2only
    lteratio = 10
    relref = alllocal
    cmin = 0 F
    gmin = 1 pS
    rabsshort = 1 mOhm


Notice from spectre during transient analysis `tran', during Monte Carlo analysis `mc1'.
    Multithreading is disabled due to the size of the design being too small.


Output and IC/nodeset summary:
                 save   8       (current)
                 save   87      (voltage)

SOAC: I0.I5.MP0.soac_m1       modp V(D,S): LEAVING@  0us ;
SOAC: I0.I5.MP0.soac_m1       modp V(D,B): LEAVING@  0us ;
SOAC: I0.I1.MP0.soac_m1       modp V(D,S): LEAVING@  0us ;
SOAC: I0.I1.MP0.soac_m1       modp V(D,B): LEAVING@  0us ;
SOAC: I0.I2.MP0.soac_m1       modp V(D,S): LEAVING@  0us ;
SOAC: I0.I2.MP0.soac_m1       modp V(D,B): LEAVING@  0us ;
SOAC: I0.I3.MP0.soac_m1       modp V(D,S): LEAVING@  0us ;
SOAC: I0.I3.MP0.soac_m1       modp V(D,B): LEAVING@  0us ;
    tran: time = 1.019 ms    (2.55 %), step = 48.63 us     (122 m%)
    tran: time = 3.033 ms    (7.58 %), step = 47.55 us     (119 m%)
    tran: time = 5.046 ms    (12.6 %), step = 46.71 us     (117 m%)
    tran: time = 7.013 ms    (17.5 %), step = 49.18 us     (123 m%)
    tran: time = 9.026 ms    (22.6 %), step = 48.01 us     (120 m%)
    tran: time = 11.04 ms    (27.6 %), step = 47.07 us     (118 m%)
    tran: time = 13.01 ms    (32.5 %), step = 49.78 us     (124 m%)
    tran: time = 15.02 ms    (37.6 %), step = 48.51 us     (121 m%)
    tran: time = 17.03 ms    (42.6 %), step = 47.46 us     (119 m%)
    tran: time = 19 ms       (47.5 %), step = 50 us        (125 m%)
    tran: time = 21.01 ms    (52.5 %), step = 49.05 us     (123 m%)
    tran: time = 23.03 ms    (57.6 %), step = 47.9 us      (120 m%)
    tran: time = 25.04 ms    (62.6 %), step = 46.98 us     (117 m%)
    tran: time = 27.01 ms    (67.5 %), step = 49.63 us     (124 m%)
    tran: time = 29.02 ms    (72.6 %), step = 48.39 us     (121 m%)
    tran: time = 31.04 ms    (77.6 %), step = 47.36 us     (118 m%)
    tran: time = 33 ms       (82.5 %), step = 50 us        (125 m%)
    tran: time = 35.02 ms    (87.5 %), step = 48.91 us     (122 m%)
    tran: time = 37.03 ms    (92.6 %), step = 47.78 us     (119 m%)
    tran: time = 39.04 ms    (97.6 %), step = 46.89 us     (117 m%)
Number of accepted tran steps =             851

Maximum value achieved for any signal of each quantity: 
V: V(net2) = 3.63 V
I: I(V0:p) = 6.389 uA
Maximum value of each quantity, excluding Verilog-A modules or dangling current sources:
V: V(vout_filt) = 1.614 V
I: I(V0:p) = 6.389 uA

~~~~~~~~~~~~~~~~~~~~~~~~~~~~~~~~~
Post-Transient Simulation Summary
~~~~~~~~~~~~~~~~~~~~~~~~~~~~~~~~~
   -   To further speed up simulation, consider
          add ++aps on command line
   -   Non-default settings that could significantly slow down simulation
          errpreset = conservative, default moderate
          reltol = 10e-06, default 100e-06 (conservative)
~~~~~~~~~~~~~~~~~~~~~~~~~~~~~~~~~


During simulation, the CPU load for active processors is :
         0 (24.1 %)      1 (10.9 %)      2 (80.3 %)      3 (3.2 %)
         4 (5.2 %)       5 (5.8 %)       6 (6.2 %)       7 (8.5 %)
         8 (66.0 %)      9 (26.1 %)     10 (20.9 %)     11 (9.1 %)
        12 (9.6 %)      13 (5.0 %)      14 (4.4 %)      15 (39.9 %)
        16 (39.7 %)     17 (16.0 %)     18 (50.0 %)     19 (5.3 %)
        20 (11.7 %)     21 (38.7 %)     22 (28.3 %)     23 (22.6 %)
        24 (8.1 %)      25 (22.8 %)     26 (3.5 %)      27 (3.8 %)
        28 (2.9 %)      29 (2.0 %)      30 (1.7 %)      31 (100.0 %)
        32 (4.1 %)      33 (67.8 %)     34 (7.8 %)      35 (10.8 %)
        36 (13.7 %)     37 (5.3 %)      38 (7.3 %)      39 (100.0 %)
        40 (43.9 %)     41 (8.0 %)      42 (13.8 %)     43 (7.3 %)
        44 (35.5 %)     45 (9.9 %)      46 (5.9 %)      47 (21.8 %)
        Total: 1045.5%
Initial condition solution time: CPU = 3.124 ms, elapsed = 3.12591 ms.
Intrinsic tran analysis time:    CPU = 515.197 ms, elapsed = 516.764 ms.

Opening the PSF file ../psf/mc1_separate/003/tranViolations.violations ...
Total time required for tran analysis `tran': CPU = 523.482 ms, elapsed = 528.102 ms, util. = 99.1%.
Time accumulated: CPU = 2.87825 s, elapsed = 3.53536 s.
Peak resident memory used = 214 Mbytes.


Notice from spectre during transient analysis `tran', during Monte Carlo analysis `mc1'.
    34 warnings suppressed.

finalTimeOP: writing operating point information to rawfile.

Opening the PSF file ../psf/mc1_separate/003/finalTimeOP.info ...
modelParameter: writing model parameter values to rawfile.

Opening the PSF file ../psf/mc1_separate/003/modelParameter.info ...
element: writing instance parameter values to rawfile.

Opening the PSF file ../psf/mc1_separate/003/element.info ...
outputParameter: writing output parameter values to rawfile.

Opening the PSF file ../psf/mc1_separate/003/outputParameter.info ...
designParamVals: writing netlist parameters to rawfile.

Opening the PSFASCII file ../psf/mc1_separate/003/designParamVals.info ...
primitives: writing primitives to rawfile.

Opening the PSFASCII file ../psf/mc1_separate/003/primitives.info.primitives ...
subckts: writing subcircuits to rawfile.

Opening the PSFASCII file ../psf/mc1_separate/003/subckts.info.subckts ...
    mc1: iteration = 3           (4.08 %), step = 1            (2.04 %)
4   6.12% 

*****************************************************************************************
* 
* INFO: AMS_processOption = C35B4C3
* 
* INFO: Valid Modules  PIP VG5 HIRES
* 
*****************************************************************************************


******************
DC Analysis `dcOp'
******************

Opening the PSF file ../psf/mc1_separate/004/dcOp.dc ...
Important parameter values:
    reltol = 100e-06
    abstol(V) = 1 uV
    abstol(I) = 1 pA
    temp = 85 C
    tnom = 27 C
    tempeffects = all
    gmindc = 1 pS
    rabsshort = 1 mOhm

Notice from spectre during DC analysis `dcOp', during Monte Carlo analysis `mc1'.
    Bad pivoting is found during DC analysis. Option dc_pivot_check=yes is recommended for possible improvement of convergence.
SOAC: I0.I5.MP0.soac_m1       modp V(D,S): LEAVING@  0us ;
SOAC: I0.I5.MP0.soac_m1       modp V(D,B): LEAVING@  0us ;
SOAC: I0.I1.MP0.soac_m1       modp V(D,S): LEAVING@  0us ;
SOAC: I0.I1.MP0.soac_m1       modp V(D,B): LEAVING@  0us ;
SOAC: I0.I2.MP0.soac_m1       modp V(D,S): LEAVING@  0us ;
SOAC: I0.I2.MP0.soac_m1       modp V(D,B): LEAVING@  0us ;
SOAC: I0.I3.MP0.soac_m1       modp V(D,S): LEAVING@  0us ;
SOAC: I0.I3.MP0.soac_m1       modp V(D,B): LEAVING@  0us ;

Maximum value achieved for any signal of each quantity: 
V: V(net2) = 3.63 V
I: I(V0:p) = 6.525 uA
Maximum value of each quantity, excluding Verilog-A modules or dangling current sources:
V: V(net1) = 1.6 V
I: I(V0:p) = 6.525 uA

Warning from spectre during check, during DC analysis `dcOp', during Monte Carlo analysis `mc1'.
    WARNING (CMI-2943): Parameter checks have been ignored because the valid value for parameter 'trise' could not be found in 'C1'.
    WARNING (CMI-2943): Parameter checks have been ignored because the valid value for parameter 'trise' could not be found in 'I0.R2.CM'.
    WARNING (CMI-2943): Parameter checks have been ignored because the valid value for parameter 'trise' could not be found in 'I0.R2.CS1'.
    WARNING (CMI-2943): Parameter checks have been ignored because the valid value for parameter 'trise' could not be found in 'I0.R2.CS0'.
    WARNING (CMI-2943): Parameter checks have been ignored because the valid value for parameter 'trise' could not be found in 'I0.C8<3>.C1'.
        Further occurrences of this warning will be suppressed.

Convergence achieved in 20 iterations.

Opening the PSF file ../psf/mc1_separate/004/dcOpViolations.violations ...
DC simulation time: CPU = 8.459 ms, elapsed = 13.119 ms.
Total time required for dc analysis `dcOp': CPU = 8.925 ms, elapsed = 13.586 ms, util. = 65.7%.
Time accumulated: CPU = 2.92487 s, elapsed = 3.59862 s.
Peak resident memory used = 214 Mbytes.


Notice from spectre during Monte Carlo analysis `mc1'.
    34 warnings suppressed.

dcOpInfo: writing operating point information to rawfile.

Opening the PSF file ../psf/mc1_separate/004/dcOpInfo.info ...

************************************************
Transient Analysis `tran': time = (0 s -> 40 ms)
************************************************

Opening the PSF file ../psf/mc1_separate/004/tran.tran.tran ...

Notice from spectre during IC analysis, during transient analysis `tran', during Monte Carlo analysis `mc1'.
    Bad pivoting is found during DC analysis. Option dc_pivot_check=yes is recommended for possible improvement of convergence.
Warning from spectre during check, during IC analysis, during transient analysis `tran', during Monte Carlo analysis `mc1'.
    WARNING (CMI-2943): Parameter checks have been ignored because the valid value for parameter 'trise' could not be found in 'C1'.
    WARNING (CMI-2943): Parameter checks have been ignored because the valid value for parameter 'trise' could not be found in 'I0.R2.CM'.
    WARNING (CMI-2943): Parameter checks have been ignored because the valid value for parameter 'trise' could not be found in 'I0.R2.CS1'.
    WARNING (CMI-2943): Parameter checks have been ignored because the valid value for parameter 'trise' could not be found in 'I0.R2.CS0'.
    WARNING (CMI-2943): Parameter checks have been ignored because the valid value for parameter 'trise' could not be found in 'I0.C8<3>.C1'.
        Further occurrences of this warning will be suppressed.

Convergence achieved in 20 iterations.
DC simulation time: CPU = 2.911 ms, elapsed = 2.913 ms.
Important parameter values:
    start = 0 s
    outputstart = 0 s
    stop = 40 ms
    step = 40 us
    maxstep = 400 us
    ic = all
    useprevic = no
    skipdc = no
    reltol = 10e-06
    abstol(V) = 1 uV
    abstol(I) = 1 pA
    temp = 85 C
    tnom = 27 C
    tempeffects = all
    errpreset = conservative
    method = gear2only
    lteratio = 10
    relref = alllocal
    cmin = 0 F
    gmin = 1 pS
    rabsshort = 1 mOhm


Notice from spectre during transient analysis `tran', during Monte Carlo analysis `mc1'.
    Multithreading is disabled due to the size of the design being too small.


Output and IC/nodeset summary:
                 save   8       (current)
                 save   87      (voltage)

SOAC: I0.I5.MP0.soac_m1       modp V(D,S): LEAVING@  0us ;
SOAC: I0.I5.MP0.soac_m1       modp V(D,B): LEAVING@  0us ;
SOAC: I0.I1.MP0.soac_m1       modp V(D,S): LEAVING@  0us ;
SOAC: I0.I1.MP0.soac_m1       modp V(D,B): LEAVING@  0us ;
SOAC: I0.I2.MP0.soac_m1       modp V(D,S): LEAVING@  0us ;
SOAC: I0.I2.MP0.soac_m1       modp V(D,B): LEAVING@  0us ;
SOAC: I0.I3.MP0.soac_m1       modp V(D,S): LEAVING@  0us ;
SOAC: I0.I3.MP0.soac_m1       modp V(D,B): LEAVING@  0us ;
    tran: time = 1.019 ms    (2.55 %), step = 48.57 us     (121 m%)
    tran: time = 3.033 ms    (7.58 %), step = 47.52 us     (119 m%)
    tran: time = 5.046 ms    (12.6 %), step = 46.7 us      (117 m%)
    tran: time = 7.013 ms    (17.5 %), step = 49.19 us     (123 m%)
    tran: time = 9.026 ms    (22.6 %), step = 48.04 us     (120 m%)
    tran: time = 11.04 ms    (27.6 %), step = 47.1 us      (118 m%)
    tran: time = 13.01 ms    (32.5 %), step = 49.88 us     (125 m%)
    tran: time = 15.02 ms    (37.5 %), step = 48.61 us     (122 m%)
    tran: time = 17.03 ms    (42.6 %), step = 47.55 us     (119 m%)
    tran: time = 19.05 ms    (47.6 %), step = 46.73 us     (117 m%)
    tran: time = 21.01 ms    (52.5 %), step = 49.23 us     (123 m%)
    tran: time = 23.03 ms    (57.6 %), step = 48.07 us     (120 m%)
    tran: time = 25.04 ms    (62.6 %), step = 47.13 us     (118 m%)
    tran: time = 27.01 ms    (67.5 %), step = 49.92 us     (125 m%)
    tran: time = 29.02 ms    (72.5 %), step = 48.65 us     (122 m%)
    tran: time = 31.03 ms    (77.6 %), step = 47.58 us     (119 m%)
    tran: time = 33.05 ms    (82.6 %), step = 46.75 us     (117 m%)
    tran: time = 35.01 ms    (87.5 %), step = 49.26 us     (123 m%)
    tran: time = 37.02 ms    (92.6 %), step = 48.1 us      (120 m%)
    tran: time = 39.04 ms    (97.6 %), step = 47.15 us     (118 m%)
Number of accepted tran steps =             852

Maximum value achieved for any signal of each quantity: 
V: V(net2) = 3.63 V
I: I(V0:p) = 6.526 uA
Maximum value of each quantity, excluding Verilog-A modules or dangling current sources:
V: V(vout_filt) = 1.613 V
I: I(V0:p) = 6.526 uA

~~~~~~~~~~~~~~~~~~~~~~~~~~~~~~~~~
Post-Transient Simulation Summary
~~~~~~~~~~~~~~~~~~~~~~~~~~~~~~~~~
   -   To further speed up simulation, consider
          add ++aps on command line
   -   Non-default settings that could significantly slow down simulation
          errpreset = conservative, default moderate
          reltol = 10e-06, default 100e-06 (conservative)
~~~~~~~~~~~~~~~~~~~~~~~~~~~~~~~~~


During simulation, the CPU load for active processors is :
         0 (21.1 %)      1 (9.8 %)       2 (69.1 %)      3 (3.0 %)
         4 (7.2 %)       5 (5.2 %)       6 (5.5 %)       7 (7.3 %)
         8 (70.6 %)      9 (23.7 %)     10 (24.2 %)     11 (11.7 %)
        12 (21.9 %)     13 (5.0 %)      14 (5.3 %)      15 (48.9 %)
        16 (37.0 %)     17 (13.9 %)     18 (43.5 %)     19 (4.5 %)
        20 (10.2 %)     21 (47.8 %)     22 (38.5 %)     23 (32.8 %)
        24 (7.9 %)      25 (28.1 %)     26 (3.0 %)      27 (3.5 %)
        28 (13.7 %)     29 (2.0 %)      30 (1.7 %)      31 (100.0 %)
        32 (12.1 %)     33 (58.3 %)     34 (6.9 %)      35 (11.2 %)
        36 (20.9 %)     37 (6.0 %)      38 (7.0 %)      39 (100.0 %)
        40 (40.8 %)     41 (10.1 %)     42 (12.2 %)     43 (7.2 %)
        44 (33.0 %)     45 (10.2 %)     46 (6.0 %)      47 (18.8 %)
        Total: 1088.4%
Initial condition solution time: CPU = 2.944 ms, elapsed = 2.9459 ms.
Intrinsic tran analysis time:    CPU = 515.556 ms, elapsed = 517.65 ms.

Opening the PSF file ../psf/mc1_separate/004/tranViolations.violations ...
Total time required for tran analysis `tran': CPU = 523.756 ms, elapsed = 529.331 ms, util. = 98.9%.
Time accumulated: CPU = 3.45537 s, elapsed = 4.13689 s.
Peak resident memory used = 214 Mbytes.


Notice from spectre during transient analysis `tran', during Monte Carlo analysis `mc1'.
    34 warnings suppressed.

finalTimeOP: writing operating point information to rawfile.

Opening the PSF file ../psf/mc1_separate/004/finalTimeOP.info ...
modelParameter: writing model parameter values to rawfile.

Opening the PSF file ../psf/mc1_separate/004/modelParameter.info ...
element: writing instance parameter values to rawfile.

Opening the PSF file ../psf/mc1_separate/004/element.info ...
outputParameter: writing output parameter values to rawfile.

Opening the PSF file ../psf/mc1_separate/004/outputParameter.info ...
designParamVals: writing netlist parameters to rawfile.

Opening the PSFASCII file ../psf/mc1_separate/004/designParamVals.info ...
primitives: writing primitives to rawfile.

Opening the PSFASCII file ../psf/mc1_separate/004/primitives.info.primitives ...
subckts: writing subcircuits to rawfile.

Opening the PSFASCII file ../psf/mc1_separate/004/subckts.info.subckts ...
    mc1: iteration = 4           (6.12 %), step = 1            (2.04 %)
5   8.16% 

*****************************************************************************************
* 
* INFO: AMS_processOption = C35B4C3
* 
* INFO: Valid Modules  PIP VG5 HIRES
* 
*****************************************************************************************


******************
DC Analysis `dcOp'
******************

Opening the PSF file ../psf/mc1_separate/005/dcOp.dc ...
Important parameter values:
    reltol = 100e-06
    abstol(V) = 1 uV
    abstol(I) = 1 pA
    temp = 85 C
    tnom = 27 C
    tempeffects = all
    gmindc = 1 pS
    rabsshort = 1 mOhm

Notice from spectre during DC analysis `dcOp', during Monte Carlo analysis `mc1'.
    Bad pivoting is found during DC analysis. Option dc_pivot_check=yes is recommended for possible improvement of convergence.
SOAC: I0.I5.MP0.soac_m1       modp V(D,S): LEAVING@  0us ;
SOAC: I0.I5.MP0.soac_m1       modp V(D,B): LEAVING@  0us ;
SOAC: I0.I1.MP0.soac_m1       modp V(D,S): LEAVING@  0us ;
SOAC: I0.I1.MP0.soac_m1       modp V(D,B): LEAVING@  0us ;
SOAC: I0.I2.MP0.soac_m1       modp V(D,S): LEAVING@  0us ;
SOAC: I0.I2.MP0.soac_m1       modp V(D,B): LEAVING@  0us ;
SOAC: I0.I3.MP0.soac_m1       modp V(D,S): LEAVING@  0us ;
SOAC: I0.I3.MP0.soac_m1       modp V(D,B): LEAVING@  0us ;

Maximum value achieved for any signal of each quantity: 
V: V(net2) = 3.63 V
I: I(V0:p) = 6.441 uA
Maximum value of each quantity, excluding Verilog-A modules or dangling current sources:
V: V(vout_filt) = 1.6 V
I: I(V0:p) = 6.441 uA

Warning from spectre during check, during DC analysis `dcOp', during Monte Carlo analysis `mc1'.
    WARNING (CMI-2943): Parameter checks have been ignored because the valid value for parameter 'trise' could not be found in 'C1'.
    WARNING (CMI-2943): Parameter checks have been ignored because the valid value for parameter 'trise' could not be found in 'I0.R2.CM'.
    WARNING (CMI-2943): Parameter checks have been ignored because the valid value for parameter 'trise' could not be found in 'I0.R2.CS1'.
    WARNING (CMI-2943): Parameter checks have been ignored because the valid value for parameter 'trise' could not be found in 'I0.R2.CS0'.
    WARNING (CMI-2943): Parameter checks have been ignored because the valid value for parameter 'trise' could not be found in 'I0.C8<3>.C1'.
        Further occurrences of this warning will be suppressed.

Convergence achieved in 18 iterations.

Opening the PSF file ../psf/mc1_separate/005/dcOpViolations.violations ...
DC simulation time: CPU = 9.591 ms, elapsed = 13.3219 ms.
Total time required for dc analysis `dcOp': CPU = 10.081 ms, elapsed = 13.8109 ms, util. = 73%.
Time accumulated: CPU = 3.50911 s, elapsed = 4.20697 s.
Peak resident memory used = 214 Mbytes.


Notice from spectre during Monte Carlo analysis `mc1'.
    34 warnings suppressed.

dcOpInfo: writing operating point information to rawfile.

Opening the PSF file ../psf/mc1_separate/005/dcOpInfo.info ...

************************************************
Transient Analysis `tran': time = (0 s -> 40 ms)
************************************************

Opening the PSF file ../psf/mc1_separate/005/tran.tran.tran ...

Notice from spectre during IC analysis, during transient analysis `tran', during Monte Carlo analysis `mc1'.
    Bad pivoting is found during DC analysis. Option dc_pivot_check=yes is recommended for possible improvement of convergence.
Warning from spectre during check, during IC analysis, during transient analysis `tran', during Monte Carlo analysis `mc1'.
    WARNING (CMI-2943): Parameter checks have been ignored because the valid value for parameter 'trise' could not be found in 'C1'.
    WARNING (CMI-2943): Parameter checks have been ignored because the valid value for parameter 'trise' could not be found in 'I0.R2.CM'.
    WARNING (CMI-2943): Parameter checks have been ignored because the valid value for parameter 'trise' could not be found in 'I0.R2.CS1'.
    WARNING (CMI-2943): Parameter checks have been ignored because the valid value for parameter 'trise' could not be found in 'I0.R2.CS0'.
    WARNING (CMI-2943): Parameter checks have been ignored because the valid value for parameter 'trise' could not be found in 'I0.C8<3>.C1'.
        Further occurrences of this warning will be suppressed.

Convergence achieved in 18 iterations.
DC simulation time: CPU = 2.925 ms, elapsed = 2.92492 ms.
Important parameter values:
    start = 0 s
    outputstart = 0 s
    stop = 40 ms
    step = 40 us
    maxstep = 400 us
    ic = all
    useprevic = no
    skipdc = no
    reltol = 10e-06
    abstol(V) = 1 uV
    abstol(I) = 1 pA
    temp = 85 C
    tnom = 27 C
    tempeffects = all
    errpreset = conservative
    method = gear2only
    lteratio = 10
    relref = alllocal
    cmin = 0 F
    gmin = 1 pS
    rabsshort = 1 mOhm


Notice from spectre during transient analysis `tran', during Monte Carlo analysis `mc1'.
    Multithreading is disabled due to the size of the design being too small.


Output and IC/nodeset summary:
                 save   8       (current)
                 save   87      (voltage)

SOAC: I0.I5.MP0.soac_m1       modp V(D,S): LEAVING@  0us ;
SOAC: I0.I5.MP0.soac_m1       modp V(D,B): LEAVING@  0us ;
SOAC: I0.I1.MP0.soac_m1       modp V(D,S): LEAVING@  0us ;
SOAC: I0.I1.MP0.soac_m1       modp V(D,B): LEAVING@  0us ;
SOAC: I0.I2.MP0.soac_m1       modp V(D,S): LEAVING@  0us ;
SOAC: I0.I2.MP0.soac_m1       modp V(D,B): LEAVING@  0us ;
SOAC: I0.I3.MP0.soac_m1       modp V(D,S): LEAVING@  0us ;
SOAC: I0.I3.MP0.soac_m1       modp V(D,B): LEAVING@  0us ;
    tran: time = 1.021 ms    (2.55 %), step = 48.47 us     (121 m%)
    tran: time = 3.035 ms    (7.59 %), step = 47.42 us     (119 m%)
    tran: time = 5.002 ms    (12.5 %), step = 50 us        (125 m%)
    tran: time = 7.015 ms    (17.5 %), step = 48.96 us     (122 m%)
    tran: time = 9.029 ms    (22.6 %), step = 47.81 us     (120 m%)
    tran: time = 11.04 ms    (27.6 %), step = 46.91 us     (117 m%)
    tran: time = 13.01 ms    (32.5 %), step = 49.48 us     (124 m%)
    tran: time = 15.02 ms    (37.6 %), step = 48.25 us     (121 m%)
    tran: time = 17.04 ms    (42.6 %), step = 47.24 us     (118 m%)
    tran: time = 19 ms       (47.5 %), step = 50 us        (125 m%)
    tran: time = 21.02 ms    (52.5 %), step = 48.72 us     (122 m%)
    tran: time = 23.03 ms    (57.6 %), step = 47.61 us     (119 m%)
    tran: time = 25.05 ms    (62.6 %), step = 46.75 us     (117 m%)
    tran: time = 27.01 ms    (67.5 %), step = 49.22 us     (123 m%)
    tran: time = 29.03 ms    (72.6 %), step = 48.03 us     (120 m%)
    tran: time = 31.04 ms    (77.6 %), step = 47.08 us     (118 m%)
    tran: time = 33.01 ms    (82.5 %), step = 49.78 us     (124 m%)
    tran: time = 35.02 ms    (87.6 %), step = 48.49 us     (121 m%)
    tran: time = 37.03 ms    (92.6 %), step = 47.43 us     (119 m%)
    tran: time = 39 ms       (97.5 %), step = 50 us        (125 m%)
Number of accepted tran steps =             851

Maximum value achieved for any signal of each quantity: 
V: V(net2) = 3.63 V
I: I(V0:p) = 6.442 uA
Maximum value of each quantity, excluding Verilog-A modules or dangling current sources:
V: V(vout_filt) = 1.614 V
I: I(V0:p) = 6.442 uA

~~~~~~~~~~~~~~~~~~~~~~~~~~~~~~~~~
Post-Transient Simulation Summary
~~~~~~~~~~~~~~~~~~~~~~~~~~~~~~~~~
   -   To further speed up simulation, consider
          add ++aps on command line
   -   Non-default settings that could significantly slow down simulation
          errpreset = conservative, default moderate
          reltol = 10e-06, default 100e-06 (conservative)
~~~~~~~~~~~~~~~~~~~~~~~~~~~~~~~~~


During simulation, the CPU load for active processors is :
         0 (18.4 %)      1 (8.5 %)       2 (60.3 %)      3 (14.8 %)
         4 (6.9 %)       5 (5.0 %)       6 (4.8 %)       7 (7.2 %)
         8 (62.6 %)      9 (20.7 %)     10 (33.9 %)     11 (12.6 %)
        12 (29.0 %)     13 (4.8 %)      14 (5.0 %)      15 (55.6 %)
        16 (32.6 %)     17 (13.4 %)     18 (46.4 %)     19 (8.7 %)
        20 (9.1 %)      21 (54.7 %)     22 (46.0 %)     23 (29.1 %)
        24 (9.9 %)      25 (24.7 %)     26 (3.0 %)      27 (3.7 %)
        28 (11.9 %)     29 (1.9 %)      30 (1.5 %)      31 (100.0 %)
        32 (10.7 %)     33 (50.8 %)     34 (6.5 %)      35 (22.4 %)
        36 (19.6 %)     37 (7.0 %)      38 (6.7 %)      39 (100.0 %)
        40 (48.0 %)     41 (11.5 %)     42 (11.5 %)     43 (7.0 %)
        44 (29.2 %)     45 (9.1 %)      46 (5.3 %)      47 (16.4 %)
        Total: 1108.3%
Initial condition solution time: CPU = 2.965 ms, elapsed = 2.96688 ms.
Intrinsic tran analysis time:    CPU = 519.789 ms, elapsed = 521.255 ms.

Opening the PSF file ../psf/mc1_separate/005/tranViolations.violations ...
Total time required for tran analysis `tran': CPU = 527.96 ms, elapsed = 532.329 ms, util. = 99.2%.
Time accumulated: CPU = 4.04456 s, elapsed = 4.74916 s.
Peak resident memory used = 214 Mbytes.


Notice from spectre during transient analysis `tran', during Monte Carlo analysis `mc1'.
    34 warnings suppressed.

finalTimeOP: writing operating point information to rawfile.

Opening the PSF file ../psf/mc1_separate/005/finalTimeOP.info ...
modelParameter: writing model parameter values to rawfile.

Opening the PSF file ../psf/mc1_separate/005/modelParameter.info ...
element: writing instance parameter values to rawfile.

Opening the PSF file ../psf/mc1_separate/005/element.info ...
outputParameter: writing output parameter values to rawfile.

Opening the PSF file ../psf/mc1_separate/005/outputParameter.info ...
designParamVals: writing netlist parameters to rawfile.

Opening the PSFASCII file ../psf/mc1_separate/005/designParamVals.info ...
primitives: writing primitives to rawfile.

Opening the PSFASCII file ../psf/mc1_separate/005/primitives.info.primitives ...
subckts: writing subcircuits to rawfile.

Opening the PSFASCII file ../psf/mc1_separate/005/subckts.info.subckts ...
    mc1: iteration = 5           (8.16 %), step = 1            (2.04 %)
6  10.20% 

*****************************************************************************************
* 
* INFO: AMS_processOption = C35B4C3
* 
* INFO: Valid Modules  PIP VG5 HIRES
* 
*****************************************************************************************


******************
DC Analysis `dcOp'
******************

Opening the PSF file ../psf/mc1_separate/006/dcOp.dc ...
Important parameter values:
    reltol = 100e-06
    abstol(V) = 1 uV
    abstol(I) = 1 pA
    temp = 85 C
    tnom = 27 C
    tempeffects = all
    gmindc = 1 pS
    rabsshort = 1 mOhm

Notice from spectre during DC analysis `dcOp', during Monte Carlo analysis `mc1'.
    Bad pivoting is found during DC analysis. Option dc_pivot_check=yes is recommended for possible improvement of convergence.
SOAC: I0.I5.MP0.soac_m1       modp V(D,S): LEAVING@  0us ;
SOAC: I0.I5.MP0.soac_m1       modp V(D,B): LEAVING@  0us ;
SOAC: I0.I1.MP0.soac_m1       modp V(D,S): LEAVING@  0us ;
SOAC: I0.I1.MP0.soac_m1       modp V(D,B): LEAVING@  0us ;
SOAC: I0.I2.MP0.soac_m1       modp V(D,S): LEAVING@  0us ;
SOAC: I0.I2.MP0.soac_m1       modp V(D,B): LEAVING@  0us ;
SOAC: I0.I3.MP0.soac_m1       modp V(D,S): LEAVING@  0us ;
SOAC: I0.I3.MP0.soac_m1       modp V(D,B): LEAVING@  0us ;

Maximum value achieved for any signal of each quantity: 
V: V(net2) = 3.63 V
I: I(V0:p) = 6.468 uA
Maximum value of each quantity, excluding Verilog-A modules or dangling current sources:
V: V(net1) = 1.6 V
I: I(V0:p) = 6.468 uA

Warning from spectre during check, during DC analysis `dcOp', during Monte Carlo analysis `mc1'.
    WARNING (CMI-2943): Parameter checks have been ignored because the valid value for parameter 'trise' could not be found in 'C1'.
    WARNING (CMI-2943): Parameter checks have been ignored because the valid value for parameter 'trise' could not be found in 'I0.R2.CM'.
    WARNING (CMI-2943): Parameter checks have been ignored because the valid value for parameter 'trise' could not be found in 'I0.R2.CS1'.
    WARNING (CMI-2943): Parameter checks have been ignored because the valid value for parameter 'trise' could not be found in 'I0.R2.CS0'.
    WARNING (CMI-2943): Parameter checks have been ignored because the valid value for parameter 'trise' could not be found in 'I0.C8<3>.C1'.
        Further occurrences of this warning will be suppressed.

Convergence achieved in 18 iterations.

Opening the PSF file ../psf/mc1_separate/006/dcOpViolations.violations ...
DC simulation time: CPU = 8.474 ms, elapsed = 12.0001 ms.
Total time required for dc analysis `dcOp': CPU = 8.975 ms, elapsed = 12.501 ms, util. = 71.8%.
Time accumulated: CPU = 4.09243 s, elapsed = 4.81089 s.
Peak resident memory used = 214 Mbytes.


Notice from spectre during Monte Carlo analysis `mc1'.
    34 warnings suppressed.

dcOpInfo: writing operating point information to rawfile.

Opening the PSF file ../psf/mc1_separate/006/dcOpInfo.info ...

************************************************
Transient Analysis `tran': time = (0 s -> 40 ms)
************************************************

Opening the PSF file ../psf/mc1_separate/006/tran.tran.tran ...

Notice from spectre during IC analysis, during transient analysis `tran', during Monte Carlo analysis `mc1'.
    Bad pivoting is found during DC analysis. Option dc_pivot_check=yes is recommended for possible improvement of convergence.
Warning from spectre during check, during IC analysis, during transient analysis `tran', during Monte Carlo analysis `mc1'.
    WARNING (CMI-2943): Parameter checks have been ignored because the valid value for parameter 'trise' could not be found in 'C1'.
    WARNING (CMI-2943): Parameter checks have been ignored because the valid value for parameter 'trise' could not be found in 'I0.R2.CM'.
    WARNING (CMI-2943): Parameter checks have been ignored because the valid value for parameter 'trise' could not be found in 'I0.R2.CS1'.
    WARNING (CMI-2943): Parameter checks have been ignored because the valid value for parameter 'trise' could not be found in 'I0.R2.CS0'.
    WARNING (CMI-2943): Parameter checks have been ignored because the valid value for parameter 'trise' could not be found in 'I0.C8<3>.C1'.
        Further occurrences of this warning will be suppressed.

Convergence achieved in 18 iterations.
DC simulation time: CPU = 2.793 ms, elapsed = 2.79403 ms.
Important parameter values:
    start = 0 s
    outputstart = 0 s
    stop = 40 ms
    step = 40 us
    maxstep = 400 us
    ic = all
    useprevic = no
    skipdc = no
    reltol = 10e-06
    abstol(V) = 1 uV
    abstol(I) = 1 pA
    temp = 85 C
    tnom = 27 C
    tempeffects = all
    errpreset = conservative
    method = gear2only
    lteratio = 10
    relref = alllocal
    cmin = 0 F
    gmin = 1 pS
    rabsshort = 1 mOhm


Notice from spectre during transient analysis `tran', during Monte Carlo analysis `mc1'.
    Multithreading is disabled due to the size of the design being too small.


Output and IC/nodeset summary:
                 save   8       (current)
                 save   87      (voltage)

SOAC: I0.I5.MP0.soac_m1       modp V(D,S): LEAVING@  0us ;
SOAC: I0.I5.MP0.soac_m1       modp V(D,B): LEAVING@  0us ;
SOAC: I0.I1.MP0.soac_m1       modp V(D,S): LEAVING@  0us ;
SOAC: I0.I1.MP0.soac_m1       modp V(D,B): LEAVING@  0us ;
SOAC: I0.I2.MP0.soac_m1       modp V(D,S): LEAVING@  0us ;
SOAC: I0.I2.MP0.soac_m1       modp V(D,B): LEAVING@  0us ;
SOAC: I0.I3.MP0.soac_m1       modp V(D,S): LEAVING@  0us ;
SOAC: I0.I3.MP0.soac_m1       modp V(D,B): LEAVING@  0us ;
    tran: time = 1.021 ms    (2.55 %), step = 48.47 us     (121 m%)
    tran: time = 3.034 ms    (7.59 %), step = 47.43 us     (119 m%)
    tran: time = 5.001 ms    (12.5 %), step = 50 us        (125 m%)
    tran: time = 7.014 ms    (17.5 %), step = 49.04 us     (123 m%)
    tran: time = 9.028 ms    (22.6 %), step = 47.9 us      (120 m%)
    tran: time = 11.04 ms    (27.6 %), step = 46.99 us     (117 m%)
    tran: time = 13.01 ms    (32.5 %), step = 49.66 us     (124 m%)
    tran: time = 15.02 ms    (37.6 %), step = 48.42 us     (121 m%)
    tran: time = 17.03 ms    (42.6 %), step = 47.4 us      (118 m%)
    tran: time = 19 ms       (47.5 %), step = 50 us        (125 m%)
    tran: time = 21.01 ms    (52.5 %), step = 48.99 us     (122 m%)
    tran: time = 23.03 ms    (57.6 %), step = 47.85 us     (120 m%)
    tran: time = 25.04 ms    (62.6 %), step = 46.96 us     (117 m%)
    tran: time = 27.01 ms    (67.5 %), step = 49.6 us      (124 m%)
    tran: time = 29.02 ms    (72.6 %), step = 48.37 us     (121 m%)
    tran: time = 31.04 ms    (77.6 %), step = 47.36 us     (118 m%)
    tran: time = 33 ms       (82.5 %), step = 50 us        (125 m%)
    tran: time = 35.02 ms    (87.5 %), step = 48.93 us     (122 m%)
    tran: time = 37.03 ms    (92.6 %), step = 47.8 us      (120 m%)
    tran: time = 39.04 ms    (97.6 %), step = 46.92 us     (117 m%)
Number of accepted tran steps =             851

Maximum value achieved for any signal of each quantity: 
V: V(net2) = 3.63 V
I: I(V0:p) = 6.468 uA
Maximum value of each quantity, excluding Verilog-A modules or dangling current sources:
V: V(vout_filt) = 1.613 V
I: I(V0:p) = 6.468 uA

~~~~~~~~~~~~~~~~~~~~~~~~~~~~~~~~~
Post-Transient Simulation Summary
~~~~~~~~~~~~~~~~~~~~~~~~~~~~~~~~~
   -   To further speed up simulation, consider
          add ++aps on command line
   -   Non-default settings that could significantly slow down simulation
          errpreset = conservative, default moderate
          reltol = 10e-06, default 100e-06 (conservative)
~~~~~~~~~~~~~~~~~~~~~~~~~~~~~~~~~


During simulation, the CPU load for active processors is :
         0 (18.4 %)      1 (8.1 %)       2 (53.9 %)      3 (24.2 %)
         4 (6.3 %)       5 (4.6 %)       6 (4.4 %)       7 (6.4 %)
         8 (55.7 %)      9 (18.9 %)     10 (41.4 %)     11 (13.6 %)
        12 (25.9 %)     13 (4.4 %)      14 (4.7 %)      15 (60.7 %)
        16 (29.3 %)     17 (12.3 %)     18 (41.2 %)     19 (19.2 %)
        20 (8.1 %)      21 (59.9 %)     22 (52.2 %)     23 (26.1 %)
        24 (20.2 %)     25 (21.9 %)     26 (2.7 %)      27 (3.3 %)
[...]
SOAC: I0.I5.MP0.soac_m1       modp V(D,S): LEAVING@  0us ;
SOAC: I0.I5.MP0.soac_m1       modp V(D,B): LEAVING@  0us ;
SOAC: I0.I1.MP0.soac_m1       modp V(D,S): LEAVING@  0us ;
SOAC: I0.I1.MP0.soac_m1       modp V(D,B): LEAVING@  0us ;
SOAC: I0.I2.MP0.soac_m1       modp V(D,S): LEAVING@  0us ;
SOAC: I0.I2.MP0.soac_m1       modp V(D,B): LEAVING@  0us ;
SOAC: I0.I3.MP0.soac_m1       modp V(D,S): LEAVING@  0us ;
SOAC: I0.I3.MP0.soac_m1       modp V(D,B): LEAVING@  0us ;

Maximum value achieved for any signal of each quantity: 
V: V(net2) = 3.63 V
I: I(V0:p) = 6.498 uA
Maximum value of each quantity, excluding Verilog-A modules or dangling current sources:
V: V(vout_filt) = 1.6 V
I: I(V0:p) = 6.498 uA

Warning from spectre during check, during DC analysis `dcOp', during Monte Carlo analysis `mc1'.
    WARNING (CMI-2943): Parameter checks have been ignored because the valid value for parameter 'trise' could not be found in 'C1'.
    WARNING (CMI-2943): Parameter checks have been ignored because the valid value for parameter 'trise' could not be found in 'I0.R2.CM'.
    WARNING (CMI-2943): Parameter checks have been ignored because the valid value for parameter 'trise' could not be found in 'I0.R2.CS1'.
    WARNING (CMI-2943): Parameter checks have been ignored because the valid value for parameter 'trise' could not be found in 'I0.R2.CS0'.
    WARNING (CMI-2943): Parameter checks have been ignored because the valid value for parameter 'trise' could not be found in 'I0.C8<3>.C1'.
        Further occurrences of this warning will be suppressed.

Convergence achieved in 18 iterations.

Opening the PSF file ../psf/mc1_separate/049/dcOpViolations.violations ...
DC simulation time: CPU = 8.949 ms, elapsed = 13.078 ms.
Total time required for dc analysis `dcOp': CPU = 9.575 ms, elapsed = 13.7022 ms, util. = 69.9%.
Time accumulated: CPU = 28.9829 s, elapsed = 30.6664 s.
Peak resident memory used = 215 Mbytes.


Notice from spectre during Monte Carlo analysis `mc1'.
    34 warnings suppressed.

dcOpInfo: writing operating point information to rawfile.

Opening the PSF file ../psf/mc1_separate/049/dcOpInfo.info ...

************************************************
Transient Analysis `tran': time = (0 s -> 40 ms)
************************************************

Opening the PSF file ../psf/mc1_separate/049/tran.tran.tran ...

Notice from spectre during IC analysis, during transient analysis `tran', during Monte Carlo analysis `mc1'.
    Bad pivoting is found during DC analysis. Option dc_pivot_check=yes is recommended for possible improvement of convergence.
Warning from spectre during check, during IC analysis, during transient analysis `tran', during Monte Carlo analysis `mc1'.
    WARNING (CMI-2943): Parameter checks have been ignored because the valid value for parameter 'trise' could not be found in 'C1'.
    WARNING (CMI-2943): Parameter checks have been ignored because the valid value for parameter 'trise' could not be found in 'I0.R2.CM'.
    WARNING (CMI-2943): Parameter checks have been ignored because the valid value for parameter 'trise' could not be found in 'I0.R2.CS1'.
    WARNING (CMI-2943): Parameter checks have been ignored because the valid value for parameter 'trise' could not be found in 'I0.R2.CS0'.
    WARNING (CMI-2943): Parameter checks have been ignored because the valid value for parameter 'trise' could not be found in 'I0.C8<3>.C1'.
        Further occurrences of this warning will be suppressed.

Convergence achieved in 18 iterations.
DC simulation time: CPU = 3.08 ms, elapsed = 3.08204 ms.
Important parameter values:
    start = 0 s
    outputstart = 0 s
    stop = 40 ms
    step = 40 us
    maxstep = 400 us
    ic = all
    useprevic = no
    skipdc = no
    reltol = 10e-06
    abstol(V) = 1 uV
    abstol(I) = 1 pA
    temp = 85 C
    tnom = 27 C
    tempeffects = all
    errpreset = conservative
    method = gear2only
    lteratio = 10
    relref = alllocal
    cmin = 0 F
    gmin = 1 pS
    rabsshort = 1 mOhm


Notice from spectre during transient analysis `tran', during Monte Carlo analysis `mc1'.
    Multithreading is disabled due to the size of the design being too small.


Output and IC/nodeset summary:
                 save   8       (current)
                 save   87      (voltage)

SOAC: I0.I5.MP0.soac_m1       modp V(D,S): LEAVING@  0us ;
SOAC: I0.I5.MP0.soac_m1       modp V(D,B): LEAVING@  0us ;
SOAC: I0.I1.MP0.soac_m1       modp V(D,S): LEAVING@  0us ;
SOAC: I0.I1.MP0.soac_m1       modp V(D,B): LEAVING@  0us ;
SOAC: I0.I2.MP0.soac_m1       modp V(D,S): LEAVING@  0us ;
SOAC: I0.I2.MP0.soac_m1       modp V(D,B): LEAVING@  0us ;
SOAC: I0.I3.MP0.soac_m1       modp V(D,S): LEAVING@  0us ;
SOAC: I0.I3.MP0.soac_m1       modp V(D,B): LEAVING@  0us ;
    tran: time = 1.021 ms    (2.55 %), step = 48.47 us     (121 m%)
    tran: time = 3.034 ms    (7.59 %), step = 47.42 us     (119 m%)
    tran: time = 5.001 ms    (12.5 %), step = 50 us        (125 m%)
    tran: time = 7.015 ms    (17.5 %), step = 48.99 us     (122 m%)
    tran: time = 9.029 ms    (22.6 %), step = 47.83 us     (120 m%)
    tran: time = 11.04 ms    (27.6 %), step = 46.93 us     (117 m%)
    tran: time = 13.01 ms    (32.5 %), step = 49.53 us     (124 m%)
    tran: time = 15.02 ms    (37.6 %), step = 48.3 us      (121 m%)
    tran: time = 17.04 ms    (42.6 %), step = 47.29 us     (118 m%)
    tran: time = 19 ms       (47.5 %), step = 50 us        (125 m%)
    tran: time = 21.02 ms    (52.5 %), step = 48.8 us      (122 m%)
    tran: time = 23.03 ms    (57.6 %), step = 47.68 us     (119 m%)
    tran: time = 25.04 ms    (62.6 %), step = 46.81 us     (117 m%)
    tran: time = 27.01 ms    (67.5 %), step = 49.33 us     (123 m%)
    tran: time = 29.02 ms    (72.6 %), step = 48.13 us     (120 m%)
    tran: time = 31.04 ms    (77.6 %), step = 47.15 us     (118 m%)
    tran: time = 33.01 ms    (82.5 %), step = 49.92 us     (125 m%)
    tran: time = 35.02 ms    (87.5 %), step = 48.62 us     (122 m%)
    tran: time = 37.03 ms    (92.6 %), step = 47.54 us     (119 m%)
    tran: time = 39.05 ms    (97.6 %), step = 46.7 us      (117 m%)
Number of accepted tran steps =             851

Maximum value achieved for any signal of each quantity: 
V: V(net2) = 3.63 V
I: I(V0:p) = 6.498 uA
Maximum value of each quantity, excluding Verilog-A modules or dangling current sources:
V: V(vout_filt) = 1.614 V
I: I(V0:p) = 6.498 uA

~~~~~~~~~~~~~~~~~~~~~~~~~~~~~~~~~
Post-Transient Simulation Summary
~~~~~~~~~~~~~~~~~~~~~~~~~~~~~~~~~
   -   To further speed up simulation, consider
          add ++aps on command line
   -   Non-default settings that could significantly slow down simulation
          errpreset = conservative, default moderate
          reltol = 10e-06, default 100e-06 (conservative)
~~~~~~~~~~~~~~~~~~~~~~~~~~~~~~~~~


During simulation, the CPU load for active processors is :
         0 (28.0 %)      1 (14.7 %)      2 (47.3 %)      3 (29.6 %)
         4 (9.6 %)       5 (9.6 %)       6 (7.4 %)       7 (10.1 %)
         8 (32.9 %)      9 (10.5 %)     10 (51.0 %)     11 (27.3 %)
        12 (26.3 %)     13 (31.4 %)     14 (13.0 %)     15 (45.8 %)
        16 (38.6 %)     17 (42.2 %)     18 (44.0 %)     19 (22.9 %)
        20 (8.7 %)      21 (57.6 %)     22 (23.3 %)     23 (26.0 %)
        24 (41.5 %)     25 (22.5 %)     26 (16.0 %)     27 (18.0 %)
        28 (16.3 %)     29 (40.5 %)     30 (5.0 %)      31 (100.0 %)
        32 (10.0 %)     33 (32.2 %)     34 (15.0 %)     35 (53.6 %)
        36 (33.5 %)     37 (23.9 %)     38 (7.7 %)      39 (100.0 %)
        40 (29.7 %)     41 (26.5 %)     42 (20.9 %)     43 (10.1 %)
        44 (11.5 %)     45 (27.8 %)     46 (13.6 %)     47 (22.4 %)
        Total: 1355.7%
Initial condition solution time: CPU = 3.126 ms, elapsed = 3.12686 ms.
Intrinsic tran analysis time:    CPU = 524.002 ms, elapsed = 525.197 ms.

Opening the PSF file ../psf/mc1_separate/049/tranViolations.violations ...
Total time required for tran analysis `tran': CPU = 532.418 ms, elapsed = 536.509 ms, util. = 99.2%.
Time accumulated: CPU = 29.5229 s, elapsed = 31.213 s.
Peak resident memory used = 215 Mbytes.


Notice from spectre during transient analysis `tran', during Monte Carlo analysis `mc1'.
    34 warnings suppressed.

finalTimeOP: writing operating point information to rawfile.

Opening the PSF file ../psf/mc1_separate/049/finalTimeOP.info ...
modelParameter: writing model parameter values to rawfile.

Opening the PSF file ../psf/mc1_separate/049/modelParameter.info ...
element: writing instance parameter values to rawfile.

Opening the PSF file ../psf/mc1_separate/049/element.info ...
outputParameter: writing output parameter values to rawfile.

Opening the PSF file ../psf/mc1_separate/049/outputParameter.info ...
designParamVals: writing netlist parameters to rawfile.

Opening the PSFASCII file ../psf/mc1_separate/049/designParamVals.info ...
primitives: writing primitives to rawfile.

Opening the PSFASCII file ../psf/mc1_separate/049/primitives.info.primitives ...
subckts: writing subcircuits to rawfile.

Opening the PSFASCII file ../psf/mc1_separate/049/subckts.info.subckts ...
    mc1: iteration = 49            (98 %), step = 1            (2.04 %)
50 100.00% 

*****************************************************************************************
* 
* INFO: AMS_processOption = C35B4C3
* 
* INFO: Valid Modules  PIP VG5 HIRES
* 
*****************************************************************************************


******************
DC Analysis `dcOp'
******************

Opening the PSF file ../psf/mc1_separate/050/dcOp.dc ...
Important parameter values:
    reltol = 100e-06
    abstol(V) = 1 uV
    abstol(I) = 1 pA
    temp = 85 C
    tnom = 27 C
    tempeffects = all
    gmindc = 1 pS
    rabsshort = 1 mOhm

Notice from spectre during DC analysis `dcOp', during Monte Carlo analysis `mc1'.
    Bad pivoting is found during DC analysis. Option dc_pivot_check=yes is recommended for possible improvement of convergence.
SOAC: I0.I5.MP0.soac_m1       modp V(D,S): LEAVING@  0us ;
SOAC: I0.I5.MP0.soac_m1       modp V(D,B): LEAVING@  0us ;
SOAC: I0.I1.MP0.soac_m1       modp V(D,S): LEAVING@  0us ;
SOAC: I0.I1.MP0.soac_m1       modp V(D,B): LEAVING@  0us ;
SOAC: I0.I2.MP0.soac_m1       modp V(D,S): LEAVING@  0us ;
SOAC: I0.I2.MP0.soac_m1       modp V(D,B): LEAVING@  0us ;
SOAC: I0.I3.MP0.soac_m1       modp V(D,S): LEAVING@  0us ;
SOAC: I0.I3.MP0.soac_m1       modp V(D,B): LEAVING@  0us ;

Maximum value achieved for any signal of each quantity: 
V: V(net2) = 3.63 V
I: I(V0:p) = 6.446 uA
Maximum value of each quantity, excluding Verilog-A modules or dangling current sources:
V: V(vout_filt) = 1.601 V
I: I(V0:p) = 6.446 uA

Warning from spectre during check, during DC analysis `dcOp', during Monte Carlo analysis `mc1'.
    WARNING (CMI-2943): Parameter checks have been ignored because the valid value for parameter 'trise' could not be found in 'C1'.
    WARNING (CMI-2943): Parameter checks have been ignored because the valid value for parameter 'trise' could not be found in 'I0.R2.CM'.
    WARNING (CMI-2943): Parameter checks have been ignored because the valid value for parameter 'trise' could not be found in 'I0.R2.CS1'.
    WARNING (CMI-2943): Parameter checks have been ignored because the valid value for parameter 'trise' could not be found in 'I0.R2.CS0'.
    WARNING (CMI-2943): Parameter checks have been ignored because the valid value for parameter 'trise' could not be found in 'I0.C8<3>.C1'.
        Further occurrences of this warning will be suppressed.

Convergence achieved in 18 iterations.

Opening the PSF file ../psf/mc1_separate/050/dcOpViolations.violations ...
DC simulation time: CPU = 9.039 ms, elapsed = 12.2261 ms.
Total time required for dc analysis `dcOp': CPU = 9.547 ms, elapsed = 12.733 ms, util. = 75%.
Time accumulated: CPU = 29.5725 s, elapsed = 31.2762 s.
Peak resident memory used = 215 Mbytes.


Notice from spectre during Monte Carlo analysis `mc1'.
    34 warnings suppressed.

dcOpInfo: writing operating point information to rawfile.

Opening the PSF file ../psf/mc1_separate/050/dcOpInfo.info ...

************************************************
Transient Analysis `tran': time = (0 s -> 40 ms)
************************************************

Opening the PSF file ../psf/mc1_separate/050/tran.tran.tran ...

Notice from spectre during IC analysis, during transient analysis `tran', during Monte Carlo analysis `mc1'.
    Bad pivoting is found during DC analysis. Option dc_pivot_check=yes is recommended for possible improvement of convergence.
Warning from spectre during check, during IC analysis, during transient analysis `tran', during Monte Carlo analysis `mc1'.
    WARNING (CMI-2943): Parameter checks have been ignored because the valid value for parameter 'trise' could not be found in 'C1'.
    WARNING (CMI-2943): Parameter checks have been ignored because the valid value for parameter 'trise' could not be found in 'I0.R2.CM'.
    WARNING (CMI-2943): Parameter checks have been ignored because the valid value for parameter 'trise' could not be found in 'I0.R2.CS1'.
    WARNING (CMI-2943): Parameter checks have been ignored because the valid value for parameter 'trise' could not be found in 'I0.R2.CS0'.
    WARNING (CMI-2943): Parameter checks have been ignored because the valid value for parameter 'trise' could not be found in 'I0.C8<3>.C1'.
        Further occurrences of this warning will be suppressed.

Convergence achieved in 18 iterations.
DC simulation time: CPU = 2.813 ms, elapsed = 2.81382 ms.
Important parameter values:
    start = 0 s
    outputstart = 0 s
    stop = 40 ms
    step = 40 us
    maxstep = 400 us
    ic = all
    useprevic = no
    skipdc = no
    reltol = 10e-06
    abstol(V) = 1 uV
    abstol(I) = 1 pA
    temp = 85 C
    tnom = 27 C
    tempeffects = all
    errpreset = conservative
    method = gear2only
    lteratio = 10
    relref = alllocal
    cmin = 0 F
    gmin = 1 pS
    rabsshort = 1 mOhm


Notice from spectre during transient analysis `tran', during Monte Carlo analysis `mc1'.
    Multithreading is disabled due to the size of the design being too small.


Output and IC/nodeset summary:
                 save   8       (current)
                 save   87      (voltage)

SOAC: I0.I5.MP0.soac_m1       modp V(D,S): LEAVING@  0us ;
SOAC: I0.I5.MP0.soac_m1       modp V(D,B): LEAVING@  0us ;
SOAC: I0.I1.MP0.soac_m1       modp V(D,S): LEAVING@  0us ;
SOAC: I0.I1.MP0.soac_m1       modp V(D,B): LEAVING@  0us ;
SOAC: I0.I2.MP0.soac_m1       modp V(D,S): LEAVING@  0us ;
SOAC: I0.I2.MP0.soac_m1       modp V(D,B): LEAVING@  0us ;
SOAC: I0.I3.MP0.soac_m1       modp V(D,S): LEAVING@  0us ;
SOAC: I0.I3.MP0.soac_m1       modp V(D,B): LEAVING@  0us ;
    tran: time = 1.021 ms    (2.55 %), step = 48.45 us     (121 m%)
    tran: time = 3.035 ms    (7.59 %), step = 47.4 us      (118 m%)
    tran: time = 5.002 ms    (12.5 %), step = 50 us        (125 m%)
    tran: time = 7.016 ms    (17.5 %), step = 48.92 us     (122 m%)
    tran: time = 9.03 ms     (22.6 %), step = 47.76 us     (119 m%)
    tran: time = 11.04 ms    (27.6 %), step = 46.87 us     (117 m%)
    tran: time = 13.01 ms    (32.5 %), step = 49.41 us     (124 m%)
    tran: time = 15.02 ms    (37.6 %), step = 48.18 us     (120 m%)
    tran: time = 17.04 ms    (42.6 %), step = 47.19 us     (118 m%)
    tran: time = 19.01 ms    (47.5 %), step = 49.95 us     (125 m%)
    tran: time = 21.02 ms    (52.5 %), step = 48.63 us     (122 m%)
    tran: time = 23.03 ms    (57.6 %), step = 47.53 us     (119 m%)
    tran: time = 25.05 ms    (62.6 %), step = 46.69 us     (117 m%)
    tran: time = 27.01 ms    (67.5 %), step = 49.11 us     (123 m%)
    tran: time = 29.03 ms    (72.6 %), step = 47.93 us     (120 m%)
    tran: time = 31.04 ms    (77.6 %), step = 46.99 us     (117 m%)
    tran: time = 33.01 ms    (82.5 %), step = 49.62 us     (124 m%)
    tran: time = 35.02 ms    (87.6 %), step = 48.36 us     (121 m%)
    tran: time = 37.04 ms    (92.6 %), step = 47.32 us     (118 m%)
    tran: time = 39 ms       (97.5 %), step = 50 us        (125 m%)
Number of accepted tran steps =             851

Maximum value achieved for any signal of each quantity: 
V: V(net2) = 3.63 V
I: I(V0:p) = 6.447 uA
Maximum value of each quantity, excluding Verilog-A modules or dangling current sources:
V: V(vout_filt) = 1.614 V
I: I(V0:p) = 6.447 uA

~~~~~~~~~~~~~~~~~~~~~~~~~~~~~~~~~
Post-Transient Simulation Summary
~~~~~~~~~~~~~~~~~~~~~~~~~~~~~~~~~
   -   To further speed up simulation, consider
          add ++aps on command line
   -   Non-default settings that could significantly slow down simulation
          errpreset = conservative, default moderate
          reltol = 10e-06, default 100e-06 (conservative)
~~~~~~~~~~~~~~~~~~~~~~~~~~~~~~~~~


During simulation, the CPU load for active processors is :
         0 (27.5 %)      1 (14.6 %)      2 (48.3 %)      3 (29.5 %)
         4 (9.4 %)       5 (9.5 %)       6 (7.5 %)       7 (11.7 %)
         8 (32.3 %)      9 (10.3 %)     10 (50.1 %)     11 (28.7 %)
        12 (27.7 %)     13 (32.7 %)     14 (12.8 %)     15 (45.0 %)
        16 (37.9 %)     17 (41.4 %)     18 (44.6 %)     19 (22.5 %)
        20 (8.6 %)      21 (56.6 %)     22 (23.3 %)     23 (25.5 %)
        24 (42.3 %)     25 (23.9 %)     26 (15.7 %)     27 (19.6 %)
        28 (16.3 %)     29 (39.8 %)     30 (4.9 %)      31 (100.0 %)
        32 (9.8 %)      33 (31.6 %)     34 (14.8 %)     35 (53.0 %)
        36 (33.3 %)     37 (23.6 %)     38 (7.6 %)      39 (100.0 %)
        40 (29.2 %)     41 (26.1 %)     42 (20.7 %)     43 (11.6 %)
        44 (13.0 %)     45 (27.5 %)     46 (13.4 %)     47 (22.1 %)
        Total: 1357.5%
Initial condition solution time: CPU = 2.859 ms, elapsed = 2.86198 ms.
Intrinsic tran analysis time:    CPU = 514.665 ms, elapsed = 516.222 ms.

Opening the PSF file ../psf/mc1_separate/050/tranViolations.violations ...
Total time required for tran analysis `tran': CPU = 522.647 ms, elapsed = 527 ms, util. = 99.2%.
Time accumulated: CPU = 30.1026 s, elapsed = 31.8132 s.
Peak resident memory used = 215 Mbytes.


Notice from spectre during transient analysis `tran', during Monte Carlo analysis `mc1'.
    34 warnings suppressed.

finalTimeOP: writing operating point information to rawfile.

Opening the PSF file ../psf/mc1_separate/050/finalTimeOP.info ...
modelParameter: writing model parameter values to rawfile.

Opening the PSF file ../psf/mc1_separate/050/modelParameter.info ...
element: writing instance parameter values to rawfile.

Opening the PSF file ../psf/mc1_separate/050/element.info ...
outputParameter: writing output parameter values to rawfile.

Opening the PSF file ../psf/mc1_separate/050/outputParameter.info ...
designParamVals: writing netlist parameters to rawfile.

Opening the PSFASCII file ../psf/mc1_separate/050/designParamVals.info ...
primitives: writing primitives to rawfile.

Opening the PSFASCII file ../psf/mc1_separate/050/primitives.info.primitives ...
subckts: writing subcircuits to rawfile.

Opening the PSFASCII file ../psf/mc1_separate/050/subckts.info.subckts ...
    mc1: iteration = 50           (100 %), step = 1            (2.04 %)
Total time required for montecarlo analysis `mc1': CPU = 29.6494 s, elapsed = 30.8047 s, util. = 96.2%.
Time accumulated: CPU = 30.1312 s, elapsed = 31.8548 s.
Peak resident memory used = 215 Mbytes.

Licensing Information:
Lic Summary:
[09:07:53.193104] Cdslmd servers:3000@lic08.ug.kth.se:29000@lic06.ug.kth.se
[09:07:53.193145] Feature usage summary:
[09:07:53.193147] Virtuoso_Multi_mode_Simulation


Aggregate audit (9:07:53 AM, Thur Apr 16, 2026):
Time used: CPU = 30.1 s, elapsed = 31.9 s, util. = 94.6%.
Time spent in licensing: elapsed = 53.1 ms.
Peak memory used = 215 Mbytes.
Simulation started at: 9:07:21 AM, Thur Apr 16, 2026, ended at: 9:07:53 AM, Thur Apr 16, 2026, with elapsed time (wall clock): 31.9 s.
spectre completes with 0 errors, 527 warnings, and 262 notices.
