
Spectre (R) Circuit Simulator
Version 24.1.0.288.isr5 64bit -- 3 Apr 2025
Copyright (C) 1989-2025 Cadence Design Systems, Inc. All rights reserved worldwide. Cadence and Spectre are registered trademarks of Cadence Design Systems, Inc. All others are the property of their respective holders.

Includes RSA BSAFE(R) Cryptographic or Security Protocol Software from RSA Security, Inc.

User: davidevi   Host: il2244vt26_davidevi   HostID: 11AC2C00   PID: 456820
Memory  available: 3.0738 TB  physical: 3.2467 TB
Linux   : Rocky Linux release 8.10 (Green Obsidian)
CPU Type: Intel(R) Xeon(R) CPU E7-8857 v2 @ 3.00GHz
        Socket: Processors [Frequency]
        0:       0 [1200.0],  1 [1300.0],  2 [3600.0],  3 [1200.0],  4 [2999.9]
                 5 [1200.0],  6 [3600.0],  7 [1200.0],  8 [2999.9],  9 [2999.9]
                10 [2999.9], 11 [2999.9]
        1:      12 [3399.9], 13 [3401.7], 14 [3399.9], 15 [3600.0], 16 [3600.0]
                17 [3600.0], 18 [3600.0], 19 [1200.0], 20 [3600.0], 21 [3399.9]
                22 [3600.0], 23 [3400.7]
        2:      24 [1200.0], 25 [1200.0], 26 [1200.0], 27 [2999.9], 28 [1200.0]
                29 [1200.0], 30 [1200.0], 31 [1200.0], 32 [1200.0], 33 [2999.9]
                34 [1200.0], 35 [2999.9]
        3:      36 [3600.0], 37 [3600.0], 38 [3600.0], 39 [3600.0], 40 [2999.9]
                41 [2999.9], 42 [3600.0], 43 [2999.9], 44 [2700.0], 45 [2800.0]
                46 [2999.9], 47 [2700.0]
        
System load averages (1min, 5min, 15min) : 18.1 %, 14.4 %, 13.8 %
HPC is enabled


Simulating `input.scs' on il2244vt26_davidevi at 5:43:41 PM, Mon Mar 16, 2026 (process id: 456820).
Current working directory: /home/davidevi/Desktop/myproject/Sim/CHARACTERIZATION/GM_ID_PMOS/adexl/results/data/Ocean.3/25/CHARACTERIZATION:GM_ID_PMOS:1/netlist
Command line:
    /opt/tools/cadence/installs/SPECTRE241/tools/bin/spectre -64  \
        input.scs +escchars +log ../psf/spectre.out -format psfbin  \
        +rtsf -raw ../psf +aps +mt +lqtimeout 900 -maxw 5 -maxn 5  \
        +param /opt/pdk/ams/410/spectre/ams_range.lmts -env ade  \
        -ahdllibdir  \
        /home/davidevi/Desktop/myproject/Sim/CHARACTERIZATION/GM_ID_PMOS/adexl/results/data/Ocean.3/sharedData/Job6/ahdl/input.ahdlSimDB  \
        +logstatus  \
        +adespetkn=0001089D13A302B663E41FB550AF0DF415A679A322D5069144BF588C12F604E07EF416DC01A319B562BB63D302AD44E445A378B51CA104E556CB79ED4DDE4F925BF579D15D9175FF34986BDD0AF002BA50FD7FD707E002A700AC1C8D1AF744EA0EA079D129F874D3349879D118F874D33498106959B5359E5D2000003692

Simulation Id: 07toc7bSp6ngoQom
Licensing Information:
[17:43:41.121762] Configured Lic search path (24.01-s002): 3000@lic08.ug.kth.se:29000@lic06.ug.kth.se

Licensing Information:
[17:43:41.401417] Periodic Lic check successful

Loading /opt/tools/cadence/installs/SPECTRE241/tools.lnx86/cmi/lib/64bit/5.0/libinfineon_sh.so ...
Loading /opt/tools/cadence/installs/SPECTRE241/tools.lnx86/cmi/lib/64bit/5.0/libphilips_I_sh.so ...
Loading /opt/tools/cadence/installs/SPECTRE241/tools.lnx86/cmi/lib/64bit/5.0/libphilips_sh.so ...
Loading /opt/tools/cadence/installs/SPECTRE241/tools.lnx86/cmi/lib/64bit/5.0/libsparam_sh.so ...
Loading /opt/tools/cadence/installs/SPECTRE241/tools.lnx86/cmi/lib/64bit/5.0/libstmodels_sh.so ...

Warning from spectre.
    WARNING (SPECTRE-691): This CPU processor does not support x86 advanced vector extensions instructions. This may affect math operations and slow down the simulation.

Reading file:  /home/davidevi/Desktop/myproject/Sim/CHARACTERIZATION/GM_ID_PMOS/adexl/results/data/Ocean.3/25/CHARACTERIZATION:GM_ID_PMOS:1/netlist/input.scs
Reading file:  /opt/pdk/ams/410/spectre/ams_range.lmts

Warning from spectre during read of parameter soft limits file `/opt/pdk/ams/410/spectre/ams_range.lmts', during circuit read-in.
    WARNING (SPECTRE-8360): line 1511: `ac' is an undefined primitive device.
    WARNING (SPECTRE-8360): line 1512: `ac' is an undefined primitive device.
    WARNING (SPECTRE-8360): line 1513: `ac' is an undefined primitive device.
    WARNING (SPECTRE-8360): line 1514: `ac' is an undefined primitive device.
    WARNING (SPECTRE-8360): line 1515: `ac' is an undefined primitive device.
        Further occurrences of this warning will be suppressed.

Reading file:  /opt/tools/cadence/installs/SPECTRE241/tools.lnx86/spectre/etc/configs/spectre.cfg
Reading file:  /opt/pdk/ams/410/spectre/c35/soac/soac.scs
Reading file:  /opt/pdk/ams/410/spectre/c35/soac/processOption.scs
Reading file:  /opt/pdk/ams/410/spectre/c35/soac/process.scs
Reading file:  /opt/pdk/ams/410/spectre/c35/soac/soac.va

Warning from spectre during AHDL read-in.
    WARNING (VACOMP-2435): The environment variable CDS_AHDLCMI_ENABLE is no longer supported. Therefore, the simulator will use the default compiled C code flow.

Reading link:  /opt/tools/cadence/installs/SPECTRE241/tools.lnx86/spectre/etc/ahdl/constants.h
Reading file:  /opt/tools/cadence/installs/SPECTRE241/tools.lnx86/spectre/etc/ahdl/constants.vams
Reading link:  /opt/tools/cadence/installs/SPECTRE241/tools.lnx86/spectre/etc/ahdl/discipline.h
Reading file:  /opt/tools/cadence/installs/SPECTRE241/tools.lnx86/spectre/etc/ahdl/disciplines.vams
Reading file:  /opt/pdk/ams/410/spectre/c35/processOption/C35B4C3.scs
Reading file:  /opt/pdk/ams/410/spectre/c35/soac/cmos53.scs
Reading file:  /opt/pdk/ams/410/spectre/c35/soac/res.scs
Reading file:  /opt/pdk/ams/410/spectre/c35/soac/cap.scs
Reading file:  /opt/pdk/ams/410/spectre/c35/soac/bip.scs
Reading file:  /opt/pdk/ams/410/spectre/c35/soac/ind.scs
Reading file:  /opt/pdk/ams/410/spectre/c35/soac/esddiode.scs
Time for NDB Parsing: CPU = 147.219 ms, elapsed = 275.266 ms.
Time accumulated: CPU = 355.331 ms, elapsed = 275.268 ms.
Peak resident memory used = 175 Mbytes.

Existing shared object for module modp_ahdl is up to date.
Installed compiled interface for modp_ahdl.
Time for Elaboration: CPU = 27.789 ms, elapsed = 28.4121 ms.
Time accumulated: CPU = 383.287 ms, elapsed = 303.851 ms.
Peak resident memory used = 185 Mbytes.


Notice from spectre during hierarchy flattening.
    The value 'psf' specified for the 'checklimitdest' option will no longer be supported in future releases. Use 'spectre -h' to see other recommended values for the 'checklimitdest' option.


*****************************************************************************************
* 
* INFO: AMS_processOption = C35B4C3
* 
* INFO: Valid Modules  PIP VG5 HIRES
* 
*****************************************************************************************


Time for EDB Visiting: CPU = 2.704 ms, elapsed = 2.70414 ms.
Time accumulated: CPU = 386.14 ms, elapsed = 306.702 ms.
Peak resident memory used = 188 Mbytes.

Loading /opt/tools/cadence/installs/SPECTRE241/tools.lnx86/mdl/lib/64bit/libSpectreEH_sh.so ...

Warning from spectre during initial setup.
    WARNING (SPECTRE-16460): SOAC_cvarm_vspsub:Specified subcircuit master `cvarm' was not found.
    WARNING (SPECTRE-16462): SOAC_cvarm_vspsub:Error in specification of subcircuit master. Assert is ignored.
    WARNING (SPECTRE-16460): SOAC_cvarm_vbs:Specified subcircuit master `cvarm' was not found.
    WARNING (SPECTRE-16462): SOAC_cvarm_vbs:Error in specification of subcircuit master. Assert is ignored.
    WARNING (SPECTRE-16460): SOAC_cvarm_vgb:Specified subcircuit master `cvarm' was not found.
    WARNING (SPECTRE-16462): SOAC_cvarm_vgb:Error in specification of subcircuit master. Assert is ignored.
    WARNING (SPECTRE-16460): SOAC_cvart_vspsub:Specified subcircuit master `cvart' was not found.
    WARNING (SPECTRE-16462): SOAC_cvart_vspsub:Error in specification of subcircuit master. Assert is ignored.
    WARNING (SPECTRE-16460): SOAC_cvart_vbs:Specified subcircuit master `cvart' was not found.
        Further occurrences of this warning will be suppressed.
    WARNING (SPECTRE-16462): SOAC_cvart_vbs:Error in specification of subcircuit master. Assert is ignored.
        Further occurrences of this warning will be suppressed.
Notice from spectre during topology check.
    Only one connection to the following 2 nodes:
        0
        MP0.psub!
Notice from spectre during initial setup.
    Multithreading is disabled due to the size of the design being too small.


Netlist title:
        // Generated for: spectre


Global user options:
         psfversion = 1.4.0
            vabstol = 1e-06
            iabstol = 1e-12
               temp = 27
           homotopy = 5
              limit = delta
         compatible = spice2
               gmin = 1e-12
             rforce = 1
           maxnotes = 5
           maxwarns = 5
             digits = 5
               cols = 80
             pivrel = 0.001
           sensfile = ../psf/sens.output
     checklimitdest = psf
     enable_pre_ver = yes
      ignorezerovar = yes
               save = allpub
             reltol = 0.0001
               tnom = 27
             scalem = 1
              scale = 1

Scoped user options:

Circuit inventory:
              nodes 5
            bsim3v3 1     
            isource 1     
          modp_ahdl 1     
               vcvs 1     
            vsource 2     

Analysis and control statement inventory:
                 dc 1     
               info 7     

Output statements:
             .probe 0     
           .measure 0     
               save 0     

Design checks inventory:
          paramtest 2     
             assert 175   


Notice from spectre during initial setup.
    APS enabled.
    72 warnings suppressed.

Time for parsing: CPU = 10.644 ms, elapsed = 535.223 ms.
Time accumulated: CPU = 396.892 ms, elapsed = 842.033 ms.
Peak resident memory used = 193 Mbytes.

~~~~~~~~~~~~~~~~~~~~~~
Pre-Simulation Summary
~~~~~~~~~~~~~~~~~~~~~~
   -   (APS) Multi-threading. The recommended number of threads is 1, consider adding +mt=1 on command line.
~~~~~~~~~~~~~~~~~~~~~~

******************
DC Analysis `dcOp'
******************

Notice from spectre during DC analysis `dcOp'.
    No checklimit analysis defined for asserts. A default checklimit analysis 'SpectreChecklimitAnal' has been created with all asserts enabled.


Opening the PSF file ../psf/dcOp.dc ...
Important parameter values:
    reltol = 100e-06
    abstol(V) = 1 uV
    abstol(I) = 1 pA
    temp = 27 C
    tnom = 27 C
    tempeffects = all
    gmindc = 1 pS
    rabsshort = 1 mOhm
Trying `homotopy = gmin'.
Homotopy: gmin, steps: 33

Maximum value achieved for any signal of each quantity: 
V: V(net3) = 3.3 V
I: I(V2:p) = 11.15 aA
Maximum value of each quantity, excluding Verilog-A modules or dangling current sources:
V: V(net4) = 1.8 V
I: I(V2:p) = 11.15 aA
Convergence achieved in 288 iterations.
DC simulation time: CPU = 76.865 ms, elapsed = 79.6509 ms.
Total time required for dc analysis `dcOp': CPU = 76.987 ms, elapsed = 79.7632 ms, util. = 96.5%.
Time accumulated: CPU = 494.315 ms, elapsed = 942.692 ms.
Peak resident memory used = 202 Mbytes.

dcOpInfo: writing operating point information to rawfile.

Opening the PSF file ../psf/dcOpInfo.info ...
modelParameter: writing model parameter values to rawfile.

Opening the PSF file ../psf/modelParameter.info ...
element: writing instance parameter values to rawfile.

Opening the PSF file ../psf/element.info ...
outputParameter: writing output parameter values to rawfile.

Opening the PSF file ../psf/outputParameter.info ...
designParamVals: writing netlist parameters to rawfile.

Opening the PSFASCII file ../psf/designParamVals.info ...
primitives: writing primitives to rawfile.

Opening the PSFASCII file ../psf/primitives.info.primitives ...
subckts: writing subcircuits to rawfile.

Opening the PSFASCII file ../psf/subckts.info.subckts ...
Licensing Information:
Lic Summary:
[17:43:42.219051] Cdslmd servers:3000@lic08.ug.kth.se:29000@lic06.ug.kth.se
[17:43:42.743371] Feature usage summary:
[17:43:42.743376] Virtuoso_Multi_mode_Simulation


Aggregate audit (5:43:42 PM, Mon Mar 16, 2026):
Time used: CPU = 515 ms, elapsed = 969 ms, util. = 53.1%.
Time spent in licensing: elapsed = 47.3 ms.
Peak memory used = 203 Mbytes.
Simulation started at: 5:43:41 PM, Mon Mar 16, 2026, ended at: 5:43:42 PM, Mon Mar 16, 2026, with elapsed time (wall clock): 969 ms.
spectre completes with 0 errors, 17 warnings, and 7 notices.
