
Spectre (R) Circuit Simulator
Version 24.1.0.288.isr5 64bit -- 3 Apr 2025
Copyright (C) 1989-2025 Cadence Design Systems, Inc. All rights reserved worldwide. Cadence and Spectre are registered trademarks of Cadence Design Systems, Inc. All others are the property of their respective holders.

Includes RSA BSAFE(R) Cryptographic or Security Protocol Software from RSA Security, Inc.

User: davidevi   Host: il2244vt26_davidevi   HostID: 11AC2C00   PID: 1069024
Memory  available: 3.0280 TB  physical: 3.2467 TB
Linux   : Rocky Linux release 8.10 (Green Obsidian)
CPU Type: Intel(R) Xeon(R) CPU E7-8857 v2 @ 3.00GHz
        Socket: Processors [Frequency]
        0:       0 [3397.1],  1 [3600.0],  2 [3396.4],  3 [2400.0],  4 [3350.3]
                 5 [3600.0],  6 [3600.0],  7 [3397.6],  8 [3600.0],  9 [2600.0]
                10 [3397.6], 11 [3600.0]
        1:      12 [3600.0], 13 [3600.0], 14 [3399.9], 15 [3600.0], 16 [3600.0]
                17 [3399.9], 18 [3399.9], 19 [3600.0], 20 [3600.0], 21 [3600.0]
                22 [3300.0], 23 [3399.9]
        2:      24 [3400.1], 25 [3399.9], 26 [3600.0], 27 [3399.9], 28 [3600.0]
                29 [3399.8], 30 [3399.9], 31 [3399.9], 32 [3399.9], 33 [3600.0]
                34 [3400.1], 35 [3399.8]
        3:      36 [3394.4], 37 [3364.8], 38 [3382.1], 39 [3389.0], 40 [3394.5]
                41 [3394.4], 42 [3600.0], 43 [3600.0], 44 [3354.2], 45 [3600.0]
                46 [3352.2], 47 [3354.0]
        
System load averages (1min, 5min, 15min) : 37.1 %, 31.0 %, 24.8 %
HPC is enabled


Simulating `input.scs' on il2244vt26_davidevi at 9:36:35 AM, Thur Apr 16, 2026 (process id: 1069024).
Current working directory: /home/davidevi/Desktop/myproject/Sim/VGA/VGA_1_wakeup_tb/adexl/results/data/MonteCarlo.2/76/wakeup_MC/groupRunDataDir/netlist
Command line:
    /opt/tools/cadence/installs/SPECTRE241/tools/bin/spectre -64  \
        input.scs +escchars +log ../psf/spectre.out -format psfbin  \
        +rtsf -raw ../psf +aps +mt +lqtimeout 900 -maxw 5 -maxn 5  \
        +param /opt/pdk/ams/410/spectre/ams_range.lmts -env ade  \
        -ahdllibdir  \
        /home/davidevi/Desktop/myproject/Sim/VGA/VGA_1_wakeup_tb/adexl/results/data/MonteCarlo.2/sharedData/Job490/ahdl/input.ahdlSimDB  \
        +logstatus  \
        +adespetkn=0001089D13A302B663E41FB550AF0DF415A679A322D5069144BF588C12F604E07EF416DC01A319B562BB63D355F613BF45A36AB65EFF45BB41CD0FE013DB4F9200F179D15D9175FF34986BDD0AF002BA50FD7FD707E002A700AC1C821DF743EA0EAF79D118F874D3349879D118F874D334981031B55AD9715D780000369D

Simulation Id: glwof2uU1h0bBX4i
Licensing Information:
[09:36:35.121810] Configured Lic search path (24.01-s002): 3000@lic08.ug.kth.se:29000@lic06.ug.kth.se

Licensing Information:
[09:36:36.005041] Periodic Lic check successful

Loading /opt/tools/cadence/installs/SPECTRE241/tools.lnx86/cmi/lib/64bit/5.0/libinfineon_sh.so ...
Loading /opt/tools/cadence/installs/SPECTRE241/tools.lnx86/cmi/lib/64bit/5.0/libphilips_I_sh.so ...
Loading /opt/tools/cadence/installs/SPECTRE241/tools.lnx86/cmi/lib/64bit/5.0/libphilips_sh.so ...
Loading /opt/tools/cadence/installs/SPECTRE241/tools.lnx86/cmi/lib/64bit/5.0/libsparam_sh.so ...
Loading /opt/tools/cadence/installs/SPECTRE241/tools.lnx86/cmi/lib/64bit/5.0/libstmodels_sh.so ...

Warning from spectre.
    WARNING (SPECTRE-691): This CPU processor does not support x86 advanced vector extensions instructions. This may affect math operations and slow down the simulation.

Reading file:  /home/davidevi/Desktop/myproject/Sim/VGA/VGA_1_wakeup_tb/adexl/results/data/MonteCarlo.2/76/wakeup_MC/groupRunDataDir/netlist/input.scs
Reading file:  /opt/pdk/ams/410/spectre/ams_range.lmts

Warning from spectre during read of parameter soft limits file `/opt/pdk/ams/410/spectre/ams_range.lmts', during circuit read-in.
    WARNING (SPECTRE-8360): line 1511: `ac' is an undefined primitive device.
    WARNING (SPECTRE-8360): line 1512: `ac' is an undefined primitive device.
    WARNING (SPECTRE-8360): line 1513: `ac' is an undefined primitive device.
    WARNING (SPECTRE-8360): line 1514: `ac' is an undefined primitive device.
    WARNING (SPECTRE-8360): line 1515: `ac' is an undefined primitive device.
        Further occurrences of this warning will be suppressed.

Reading file:  /opt/tools/cadence/installs/SPECTRE241/tools.lnx86/spectre/etc/configs/spectre.cfg
Reading file:  /opt/pdk/ams/410/spectre/c35/soac/soac.scs
Reading file:  /opt/pdk/ams/410/spectre/c35/soac/processOption.scs
Reading file:  /opt/pdk/ams/410/spectre/c35/soac/process.scs
Reading file:  /opt/pdk/ams/410/spectre/c35/soac/soac.va

Warning from spectre during AHDL read-in.
    WARNING (VACOMP-2435): The environment variable CDS_AHDLCMI_ENABLE is no longer supported. Therefore, the simulator will use the default compiled C code flow.

Reading link:  /opt/tools/cadence/installs/SPECTRE241/tools.lnx86/spectre/etc/ahdl/constants.h
Reading file:  /opt/tools/cadence/installs/SPECTRE241/tools.lnx86/spectre/etc/ahdl/constants.vams
Reading link:  /opt/tools/cadence/installs/SPECTRE241/tools.lnx86/spectre/etc/ahdl/discipline.h
Reading file:  /opt/tools/cadence/installs/SPECTRE241/tools.lnx86/spectre/etc/ahdl/disciplines.vams
Reading file:  /opt/pdk/ams/410/spectre/c35/processOption/C35B4C3.scs
Reading file:  /opt/pdk/ams/410/spectre/c35/soac/cmos53.scs
Reading file:  /opt/pdk/ams/410/spectre/c35/soac/res.scs
Reading file:  /opt/pdk/ams/410/spectre/c35/soac/cap.scs
Reading file:  /opt/pdk/ams/410/spectre/c35/soac/bip.scs
Reading file:  /opt/pdk/ams/410/spectre/c35/soac/ind.scs
Reading file:  /opt/pdk/ams/410/spectre/c35/soac/esddiode.scs
Time for NDB Parsing: CPU = 177.486 ms, elapsed = 475.442 ms.
Time accumulated: CPU = 360.377 ms, elapsed = 475.445 ms.
Peak resident memory used = 175 Mbytes.

Existing shared object for module modn_ahdl is up to date.
Installed compiled interface for modn_ahdl.
Existing shared object for module modp_ahdl is up to date.
Installed compiled interface for modp_ahdl.
Existing shared object for module cpoly_ahdl is up to date.
Installed compiled interface for cpoly_ahdl.
Existing shared object for module rpolyh_ahdl is up to date.
Installed compiled interface for rpolyh_ahdl.
Opening directory /home/davidevi/Desktop/myproject/Sim/VGA/VGA_1_wakeup_tb/adexl/results/data/MonteCarlo.2/sharedData/Job490/ahdl/input.ahdlSimDB/input.ahdlSimDB/ (775)
Created directory /home/davidevi/Desktop/myproject/Sim/VGA/VGA_1_wakeup_tb/adexl/results/data/MonteCarlo.2/sharedData/Job490/ahdl/input.ahdlSimDB/input.ahdlSimDB//bsource_fcab9d.va.bsource_fcab9d.ahdlcmi/ (775)
Reading file:  /home/davidevi/Desktop/myproject/Sim/ECG_IA/ecg_vga_tb/adexl/results/data/MonteCarlo.3/sharedData/Job173/ahdl/input.ahdlSimDB/input.ahdlSimDB/bsource_fcab9d.va.bsource_fcab9d.ahdlcmi/Linux-64/obj/optimize/5.0/libahdlcmi_bsource_fcab9d.so
Created directory /home/davidevi/Desktop/myproject/Sim/VGA/VGA_1_wakeup_tb/adexl/results/data/MonteCarlo.2/sharedData/Job490/ahdl/input.ahdlSimDB/input.ahdlSimDB//bsource_fcab9d.va.bsource_fcab9d.ahdlcmi/Linux-64/obj/optimize/5.0 
Copying files from directory /home/davidevi/Desktop/myproject/Sim/ECG_IA/ecg_vga_tb/adexl/results/data/MonteCarlo.3/sharedData/Job173/ahdl/input.ahdlSimDB/input.ahdlSimDB/bsource_fcab9d.va.bsource_fcab9d.ahdlcmi/Linux-64/ to directory /home/davidevi/Desktop/myproject/Sim/VGA/VGA_1_wakeup_tb/adexl/results/data/MonteCarlo.2/sharedData/Job490/ahdl/input.ahdlSimDB/input.ahdlSimDB//bsource_fcab9d.va.bsource_fcab9d.ahdlcmi/Linux-64/
Finished copying files from /home/davidevi/Desktop/myproject/Sim/ECG_IA/ecg_vga_tb/adexl/results/data/MonteCarlo.3/sharedData/Job173/ahdl/input.ahdlSimDB/input.ahdlSimDB/bsource_fcab9d.va.bsource_fcab9d.ahdlcmi/Linux-64/ to /home/davidevi/Desktop/myproject/Sim/VGA/VGA_1_wakeup_tb/adexl/results/data/MonteCarlo.2/sharedData/Job490/ahdl/input.ahdlSimDB/input.ahdlSimDB//bsource_fcab9d.va.bsource_fcab9d.ahdlcmi/Linux-64/.
The simulator has reused the existing Verilog-A libraries for this simulation run. If you do not want to use these libraries, set the 'CDS_AHDL_REUSE_LIB' environment variable to 'NO' and rerun the simulation.
Existing shared object for module bsource_fcab9d is up to date.
Installed compiled interface for bsource_fcab9d.
Time for Elaboration: CPU = 208.096 ms, elapsed = 332.715 ms.
Time accumulated: CPU = 568.61 ms, elapsed = 808.296 ms.
Peak resident memory used = 191 Mbytes.


Notice from spectre during hierarchy flattening.
    The value 'psf' specified for the 'checklimitdest' option will no longer be supported in future releases. Use 'spectre -h' to see other recommended values for the 'checklimitdest' option.


*****************************************************************************************
* 
* INFO: AMS_processOption = C35B4C3
* 
* INFO: Valid Modules  PIP VG5 HIRES
* 
*****************************************************************************************


Notice from spectre during hierarchy flattening.
    V8: `period' has the unusually large value of 100 s.


Time for EDB Visiting: CPU = 10.001 ms, elapsed = 12.553 ms.
Time accumulated: CPU = 578.911 ms, elapsed = 821.148 ms.
Peak resident memory used = 194 Mbytes.

Loading /opt/tools/cadence/installs/SPECTRE241/tools.lnx86/mdl/lib/64bit/libSpectreEH_sh.so ...

Warning from spectre during initial setup.
    WARNING (SPECTRE-16460): SOAC_cvarm_vspsub:Specified subcircuit master `cvarm' was not found.
    WARNING (SPECTRE-16462): SOAC_cvarm_vspsub:Error in specification of subcircuit master. Assert is ignored.
    WARNING (SPECTRE-16460): SOAC_cvarm_vbs:Specified subcircuit master `cvarm' was not found.
    WARNING (SPECTRE-16462): SOAC_cvarm_vbs:Error in specification of subcircuit master. Assert is ignored.
    WARNING (SPECTRE-16460): SOAC_cvarm_vgb:Specified subcircuit master `cvarm' was not found.
    WARNING (SPECTRE-16462): SOAC_cvarm_vgb:Error in specification of subcircuit master. Assert is ignored.
    WARNING (SPECTRE-16460): SOAC_cvart_vspsub:Specified subcircuit master `cvart' was not found.
    WARNING (SPECTRE-16462): SOAC_cvart_vspsub:Error in specification of subcircuit master. Assert is ignored.
    WARNING (SPECTRE-16460): SOAC_cvart_vbs:Specified subcircuit master `cvart' was not found.
        Further occurrences of this warning will be suppressed.
    WARNING (SPECTRE-16462): SOAC_cvart_vbs:Error in specification of subcircuit master. Assert is ignored.
        Further occurrences of this warning will be suppressed.
Notice from spectre during topology check.
    Only one connection to the following 54 nodes:
        I0.MN6.psub!
        I0.MN5.psub!
        I0.MN4.psub!
        I0.MN3.psub!
        I0.MN2.psub!
        Further occurrences of this notice will be suppressed.
Notice from spectre during initial setup.
    Multithreading is disabled due to the size of the design being too small.


Netlist title:
        // Point Netlist Generated on: Apr 16 09:36:35 2026


Global user options:
         psfversion = 1.4.0
            vabstol = 1e-06
            iabstol = 1e-12
               temp = 27
           homotopy = 5
              limit = delta
         compatible = spice2
               gmin = 1e-12
             rforce = 1
           maxnotes = 5
           maxwarns = 5
             digits = 5
               cols = 80
             pivrel = 0.001
           sensfile = ../psf/sens.output
     checklimitdest = psf
     enable_pre_ver = yes
      ignorezerovar = yes
               save = allpub
             reltol = 0.0001
               tnom = 27
             scalem = 1
              scale = 1

Scoped user options:

Circuit inventory:
              nodes 88
            bsim3v3 35    
     bsource_fcab9d 2     
          capacitor 38    
         cpoly_ahdl 17    
            isource 1     
          modn_ahdl 19    
          modp_ahdl 16    
           resistor 1     
        rpolyh_ahdl 2     
            vsource 8     

Analysis and control statement inventory:
               info 7     
         montecarlo 1     
               tran 1     

Output statements:
             .probe 0     
           .measure 0     
               save 0     

Design checks inventory:
          paramtest 55    
             assert 175   


Notice from spectre during initial setup.
    APS enabled.
    1 notice suppressed.
    72 warnings suppressed.

Time for parsing: CPU = 16.569 ms, elapsed = 674.282 ms.
Time accumulated: CPU = 595.607 ms, elapsed = 1.49556 s.
Peak resident memory used = 200 Mbytes.

~~~~~~~~~~~~~~~~~~~~~~
Pre-Simulation Summary
~~~~~~~~~~~~~~~~~~~~~~
   -   (APS) Multi-threading. The recommended number of threads is 1, consider adding +mt=1 on command line.
~~~~~~~~~~~~~~~~~~~~~~

***************************************************
Monte Carlo Analysis `mc1': iteration = (76 -> 100)
***************************************************
Important parameter values:
    seed = 12345
    sampling = lds
    variations = all
    firstrun = 76
    numruns = 25
    nullmfactorcorrelation = no
    donominal = no
    method = standard
Opening iteration number and data-directory mapping file:  /home/davidevi/Desktop/myproject/Sim/VGA/VGA_1_wakeup_tb/adexl/results/data/MonteCarlo.2/76/wakeup_MC/groupRunDataDir/netlist/../psf/mc1.mapping

Statistical parameters:
    Defined process parameters: 629
    Defined mismatch parameters (subckt based): 86
    Non-referenced mismatch parameters: 80
    Number of random variables: 718
    Gaussian truncation for process parameters: 4.00 sigma
    Gaussian truncation for mismatch parameters: 4.00 sigma


**** Skipping runs 1 to 75 for `mc1'


Opening the PSF file ../psf/mc1_tran.montecarlo ...

Opening the PSF file ../psf/mc1_finalTimeOP.montecarlo ...

Opening the PSF file ../psf/mc1_modelParameter.montecarlo ...

Opening the PSF file ../psf/mc1_element.montecarlo ...

Opening the PSF file ../psf/mc1_outputParameter.montecarlo ...

Opening the PSF file ../psf/mc1_designParamVals.montecarlo ...

Opening the PSF file ../psf/mc1_primitives.montecarlo ...

Opening the PSF file ../psf/mc1_subckts.montecarlo ...

**** Performing monte carlo loop for `mc1'

76   0.00% 

*****************************************************************************************
* 
* INFO: AMS_processOption = C35B4C3
* 
* INFO: Valid Modules  PIP VG5 HIRES
* 
*****************************************************************************************


Notice from spectre at iteration = 76 during Monte Carlo analysis `mc1'.
    V8: `period' has the unusually large value of 100 s.
Notice from spectre at iteration = 76 during transient analysis `tran', during Monte Carlo analysis `mc1'.
    No checklimit analysis defined for asserts. A default checklimit analysis 'SpectreChecklimitAnal' has been created with all asserts enabled.


***********************************************
Transient Analysis `tran': time = (0 s -> 50 s)
***********************************************

Opening the PSF file ../psf/mc1_separate/076/tran.tran.tran ...

Warning from spectre at iteration = 76 during check, during IC analysis, during transient analysis `tran', during Monte Carlo analysis `mc1'.
    WARNING (CMI-2943): Parameter checks have been ignored because the valid value for parameter 'trise' could not be found in 'C1'.
    WARNING (CMI-2943): Parameter checks have been ignored because the valid value for parameter 'trise' could not be found in 'I0.R2.CM'.
    WARNING (CMI-2943): Parameter checks have been ignored because the valid value for parameter 'trise' could not be found in 'I0.R2.CS1'.
    WARNING (CMI-2943): Parameter checks have been ignored because the valid value for parameter 'trise' could not be found in 'I0.R2.CS0'.
    WARNING (CMI-2943): Parameter checks have been ignored because the valid value for parameter 'trise' could not be found in 'I0.C8<3>.C1'.
        Further occurrences of this warning will be suppressed.

Convergence achieved in 12 iterations.
DC simulation time: CPU = 2.998 ms, elapsed = 2.99788 ms.
Important parameter values:
    start = 0 s
    outputstart = 0 s
    stop = 50 s
    step = 50 ms
    maxstep = 500 ms
    ic = all
    useprevic = no
    skipdc = no
    reltol = 10e-06
    abstol(V) = 1 uV
    abstol(I) = 1 pA
    temp = 27 C
    tnom = 27 C
    tempeffects = all
    errpreset = conservative
    method = gear2only
    lteratio = 10
    relref = alllocal
    cmin = 0 F
    gmin = 1 pS
    rabsshort = 1 mOhm


Notice from spectre at iteration = 76 during transient analysis `tran', during Monte Carlo analysis `mc1'.
    Multithreading is disabled due to the size of the design being too small.


Output and IC/nodeset summary:
                 save   8       (current)
                 save   87      (voltage)

    tran: time = 1.286 s     (2.57 %), step = 46.59 ms    (93.2 m%)
    tran: time = 3.899 s      (7.8 %), step = 304.1 ms     (608 m%)
    tran: time = 6.362 s     (12.7 %), step = 487.6 ms     (975 m%)
    tran: time = 8.862 s     (17.7 %), step = 500 ms          (1 %)
    tran: time = 11.36 s     (22.7 %), step = 500 ms          (1 %)
    tran: time = 13.86 s     (27.7 %), step = 500 ms          (1 %)
    tran: time = 16.36 s     (32.7 %), step = 500 ms          (1 %)
    tran: time = 18.86 s     (37.7 %), step = 500 ms          (1 %)
    tran: time = 21.36 s     (42.7 %), step = 500 ms          (1 %)
    tran: time = 23.86 s     (47.7 %), step = 500 ms          (1 %)
    tran: time = 26.36 s     (52.7 %), step = 500 ms          (1 %)
    tran: time = 28.86 s     (57.7 %), step = 500 ms          (1 %)
    tran: time = 31.36 s     (62.7 %), step = 500 ms          (1 %)
    tran: time = 33.86 s     (67.7 %), step = 500 ms          (1 %)
    tran: time = 36.36 s     (72.7 %), step = 500 ms          (1 %)
    tran: time = 38.86 s     (77.7 %), step = 500 ms          (1 %)
    tran: time = 41.36 s     (82.7 %), step = 500 ms          (1 %)
    tran: time = 43.86 s     (87.7 %), step = 500 ms          (1 %)
    tran: time = 46.36 s     (92.7 %), step = 500 ms          (1 %)
    tran: time = 48.86 s     (97.7 %), step = 500 ms          (1 %)
Number of accepted tran steps =             739

Maximum value achieved for any signal of each quantity: 
V: V(vout) = 3.3 V
I: I(V8:p) = 6.441 uA

~~~~~~~~~~~~~~~~~~~~~~~~~~~~~~~~~
Post-Transient Simulation Summary
~~~~~~~~~~~~~~~~~~~~~~~~~~~~~~~~~
   -   To further speed up simulation, consider
          add ++aps on command line
   -   Non-default settings that could significantly slow down simulation
          errpreset = conservative, default moderate
          reltol = 10e-06, default 100e-06 (conservative)
~~~~~~~~~~~~~~~~~~~~~~~~~~~~~~~~~


During simulation, the CPU load for active processors is :
         0 (13.1 %)      1 (40.7 %)      2 (25.8 %)      3 (27.7 %)
         4 (44.1 %)      5 (47.4 %)      6 (7.4 %)       7 (100.0 %)
         8 (4.6 %)       9 (34.9 %)     10 (96.6 %)     11 (4.5 %)
        12 (32.6 %)     13 (64.6 %)     14 (27.3 %)     15 (26.1 %)
        16 (37.4 %)     17 (95.0 %)     18 (12.4 %)     19 (40.1 %)
        20 (19.2 %)     21 (29.5 %)     22 (32.4 %)     23 (27.7 %)
        24 (13.6 %)     25 (88.1 %)     26 (15.9 %)     27 (55.9 %)
        28 (62.1 %)     29 (63.5 %)     30 (44.4 %)     31 (8.5 %)
        32 (93.8 %)     33 (68.0 %)     34 (3.5 %)      35 (12.7 %)
        36 (100.0 %)    37 (7.6 %)      38 (16.9 %)     39 (19.1 %)
        40 (100.0 %)    41 (21.0 %)     42 (16.0 %)     43 (66.1 %)
        44 (62.5 %)     45 (8.7 %)      46 (33.5 %)     47 (9.1 %)
        Total: 1881.6%
Initial condition solution time: CPU = 3.037 ms, elapsed = 3.03793 ms.
Intrinsic tran analysis time:    CPU = 408.158 ms, elapsed = 410.176 ms.
Total time required for tran analysis `tran': CPU = 487.257 ms, elapsed = 492.353 ms, util. = 99%.
Time accumulated: CPU = 1.16007 s, elapsed = 2.07274 s.
Peak resident memory used = 215 Mbytes.


Notice from spectre during transient analysis `tran', during Monte Carlo analysis `mc1'.
    34 warnings suppressed.

finalTimeOP: writing operating point information to rawfile.

Opening the PSF file ../psf/mc1_separate/076/finalTimeOP.info ...
modelParameter: writing model parameter values to rawfile.

Opening the PSF file ../psf/mc1_separate/076/modelParameter.info ...
element: writing instance parameter values to rawfile.

Opening the PSF file ../psf/mc1_separate/076/element.info ...
outputParameter: writing output parameter values to rawfile.

Opening the PSF file ../psf/mc1_separate/076/outputParameter.info ...
designParamVals: writing netlist parameters to rawfile.

Opening the PSFASCII file ../psf/mc1_separate/076/designParamVals.info ...
primitives: writing primitives to rawfile.

Opening the PSFASCII file ../psf/mc1_separate/076/primitives.info.primitives ...
subckts: writing subcircuits to rawfile.

Opening the PSFASCII file ../psf/mc1_separate/076/subckts.info.subckts ...
77   4.17% 

*****************************************************************************************
* 
* INFO: AMS_processOption = C35B4C3
* 
* INFO: Valid Modules  PIP VG5 HIRES
* 
*****************************************************************************************


Notice from spectre during Monte Carlo analysis `mc1'.
    V8: `period' has the unusually large value of 100 s.


***********************************************
Transient Analysis `tran': time = (0 s -> 50 s)
***********************************************

Opening the PSF file ../psf/mc1_separate/077/tran.tran.tran ...

Warning from spectre during check, during IC analysis, during transient analysis `tran', during Monte Carlo analysis `mc1'.
    WARNING (CMI-2943): Parameter checks have been ignored because the valid value for parameter 'trise' could not be found in 'C1'.
    WARNING (CMI-2943): Parameter checks have been ignored because the valid value for parameter 'trise' could not be found in 'I0.R2.CM'.
    WARNING (CMI-2943): Parameter checks have been ignored because the valid value for parameter 'trise' could not be found in 'I0.R2.CS1'.
    WARNING (CMI-2943): Parameter checks have been ignored because the valid value for parameter 'trise' could not be found in 'I0.R2.CS0'.
    WARNING (CMI-2943): Parameter checks have been ignored because the valid value for parameter 'trise' could not be found in 'I0.C8<3>.C1'.
        Further occurrences of this warning will be suppressed.

Convergence achieved in 12 iterations.
DC simulation time: CPU = 2.332 ms, elapsed = 2.33293 ms.
Important parameter values:
    start = 0 s
    outputstart = 0 s
    stop = 50 s
    step = 50 ms
    maxstep = 500 ms
    ic = all
    useprevic = no
    skipdc = no
    reltol = 10e-06
    abstol(V) = 1 uV
    abstol(I) = 1 pA
    temp = 27 C
    tnom = 27 C
    tempeffects = all
    errpreset = conservative
    method = gear2only
    lteratio = 10
    relref = alllocal
    cmin = 0 F
    gmin = 1 pS
    rabsshort = 1 mOhm


Notice from spectre during transient analysis `tran', during Monte Carlo analysis `mc1'.
    Multithreading is disabled due to the size of the design being too small.


Output and IC/nodeset summary:
                 save   8       (current)
                 save   87      (voltage)

    tran: time = 1.267 s     (2.53 %), step = 120.9 ms     (242 m%)
    tran: time = 3.814 s     (7.63 %), step = 358.4 ms     (717 m%)
    tran: time = 6.599 s     (13.2 %), step = 500 ms          (1 %)
    tran: time = 9.099 s     (18.2 %), step = 500 ms          (1 %)
    tran: time = 11.6 s      (23.2 %), step = 500 ms          (1 %)
    tran: time = 14.1 s      (28.2 %), step = 500 ms          (1 %)
    tran: time = 16.6 s      (33.2 %), step = 500 ms          (1 %)
    tran: time = 19.1 s      (38.2 %), step = 500 ms          (1 %)
    tran: time = 21.6 s      (43.2 %), step = 500 ms          (1 %)
    tran: time = 24.1 s      (48.2 %), step = 500 ms          (1 %)
    tran: time = 26.6 s      (53.2 %), step = 500 ms          (1 %)
    tran: time = 29.1 s      (58.2 %), step = 500 ms          (1 %)
    tran: time = 31.6 s      (63.2 %), step = 500 ms          (1 %)
    tran: time = 34.1 s      (68.2 %), step = 500 ms          (1 %)
    tran: time = 36.6 s      (73.2 %), step = 500 ms          (1 %)
    tran: time = 39.1 s      (78.2 %), step = 500 ms          (1 %)
    tran: time = 41.6 s      (83.2 %), step = 500 ms          (1 %)
    tran: time = 44.1 s      (88.2 %), step = 500 ms          (1 %)
    tran: time = 46.6 s      (93.2 %), step = 500 ms          (1 %)
    tran: time = 49.1 s      (98.2 %), step = 500 ms          (1 %)
Number of accepted tran steps =             743

Maximum value achieved for any signal of each quantity: 
V: V(vout) = 3.3 V
I: I(V8:p) = 6.567 uA

~~~~~~~~~~~~~~~~~~~~~~~~~~~~~~~~~
Post-Transient Simulation Summary
~~~~~~~~~~~~~~~~~~~~~~~~~~~~~~~~~
   -   To further speed up simulation, consider
          add ++aps on command line
   -   Non-default settings that could significantly slow down simulation
          errpreset = conservative, default moderate
          reltol = 10e-06, default 100e-06 (conservative)
~~~~~~~~~~~~~~~~~~~~~~~~~~~~~~~~~


During simulation, the CPU load for active processors is :
         0 (12.2 %)      1 (44.2 %)      2 (20.2 %)      3 (33.2 %)
         4 (39.2 %)      5 (60.2 %)      6 (6.5 %)       7 (100.0 %)
         8 (4.4 %)       9 (47.8 %)     10 (74.5 %)     11 (6.8 %)
        12 (28.5 %)     13 (52.2 %)     14 (31.0 %)     15 (21.7 %)
        16 (34.5 %)     17 (86.4 %)     18 (27.8 %)     19 (31.9 %)
        20 (22.9 %)     21 (27.0 %)     22 (47.2 %)     23 (33.2 %)
        24 (11.2 %)     25 (89.3 %)     26 (13.8 %)     27 (44.0 %)
        28 (70.4 %)     29 (72.3 %)     30 (35.5 %)     31 (7.0 %)
        32 (93.6 %)     33 (75.6 %)     34 (4.8 %)      35 (10.5 %)
        36 (100.0 %)    37 (28.1 %)     38 (19.2 %)     39 (23.0 %)
        40 (100.0 %)    41 (22.4 %)     42 (13.9 %)     43 (53.0 %)
        44 (64.1 %)     45 (7.5 %)      46 (28.1 %)     47 (11.2 %)
        Total: 1892.1%
Initial condition solution time: CPU = 2.386 ms, elapsed = 2.38895 ms.
Intrinsic tran analysis time:    CPU = 404.116 ms, elapsed = 405.35 ms.
Total time required for tran analysis `tran': CPU = 409.075 ms, elapsed = 410.903 ms, util. = 99.6%.
Time accumulated: CPU = 1.61791 s, elapsed = 2.54264 s.
Peak resident memory used = 215 Mbytes.


Notice from spectre during transient analysis `tran', during Monte Carlo analysis `mc1'.
    34 warnings suppressed.

finalTimeOP: writing operating point information to rawfile.

Opening the PSF file ../psf/mc1_separate/077/finalTimeOP.info ...
modelParameter: writing model parameter values to rawfile.

Opening the PSF file ../psf/mc1_separate/077/modelParameter.info ...
element: writing instance parameter values to rawfile.

Opening the PSF file ../psf/mc1_separate/077/element.info ...
outputParameter: writing output parameter values to rawfile.

Opening the PSF file ../psf/mc1_separate/077/outputParameter.info ...
designParamVals: writing netlist parameters to rawfile.

Opening the PSFASCII file ../psf/mc1_separate/077/designParamVals.info ...
primitives: writing primitives to rawfile.

Opening the PSFASCII file ../psf/mc1_separate/077/primitives.info.primitives ...
subckts: writing subcircuits to rawfile.

Opening the PSFASCII file ../psf/mc1_separate/077/subckts.info.subckts ...
    mc1: iteration = 77          (4.17 %), step = 1            (4.17 %)
78   8.33% 

*****************************************************************************************
* 
* INFO: AMS_processOption = C35B4C3
* 
* INFO: Valid Modules  PIP VG5 HIRES
* 
*****************************************************************************************


Notice from spectre during Monte Carlo analysis `mc1'.
    V8: `period' has the unusually large value of 100 s.


***********************************************
Transient Analysis `tran': time = (0 s -> 50 s)
***********************************************

Opening the PSF file ../psf/mc1_separate/078/tran.tran.tran ...

Warning from spectre during check, during IC analysis, during transient analysis `tran', during Monte Carlo analysis `mc1'.
    WARNING (CMI-2943): Parameter checks have been ignored because the valid value for parameter 'trise' could not be found in 'C1'.
    WARNING (CMI-2943): Parameter checks have been ignored because the valid value for parameter 'trise' could not be found in 'I0.R2.CM'.
    WARNING (CMI-2943): Parameter checks have been ignored because the valid value for parameter 'trise' could not be found in 'I0.R2.CS1'.
    WARNING (CMI-2943): Parameter checks have been ignored because the valid value for parameter 'trise' could not be found in 'I0.R2.CS0'.
    WARNING (CMI-2943): Parameter checks have been ignored because the valid value for parameter 'trise' could not be found in 'I0.C8<3>.C1'.
        Further occurrences of this warning will be suppressed.

Convergence achieved in 12 iterations.
DC simulation time: CPU = 2.343 ms, elapsed = 2.34389 ms.
Important parameter values:
    start = 0 s
    outputstart = 0 s
    stop = 50 s
    step = 50 ms
    maxstep = 500 ms
    ic = all
    useprevic = no
    skipdc = no
    reltol = 10e-06
    abstol(V) = 1 uV
    abstol(I) = 1 pA
    temp = 27 C
    tnom = 27 C
    tempeffects = all
    errpreset = conservative
    method = gear2only
    lteratio = 10
    relref = alllocal
    cmin = 0 F
    gmin = 1 pS
    rabsshort = 1 mOhm


Notice from spectre during transient analysis `tran', during Monte Carlo analysis `mc1'.
    Multithreading is disabled due to the size of the design being too small.


Output and IC/nodeset summary:
                 save   8       (current)
                 save   87      (voltage)

    tran: time = 1.289 s     (2.58 %), step = 97.8 ms      (196 m%)
    tran: time = 4.077 s     (8.15 %), step = 361.7 ms     (723 m%)
    tran: time = 6.367 s     (12.7 %), step = 500 ms          (1 %)
    tran: time = 8.867 s     (17.7 %), step = 500 ms          (1 %)
    tran: time = 11.37 s     (22.7 %), step = 500 ms          (1 %)
    tran: time = 13.87 s     (27.7 %), step = 500 ms          (1 %)
    tran: time = 16.37 s     (32.7 %), step = 500 ms          (1 %)
    tran: time = 18.87 s     (37.7 %), step = 500 ms          (1 %)
    tran: time = 21.37 s     (42.7 %), step = 500 ms          (1 %)
    tran: time = 23.87 s     (47.7 %), step = 500 ms          (1 %)
    tran: time = 26.37 s     (52.7 %), step = 500 ms          (1 %)
    tran: time = 28.87 s     (57.7 %), step = 500 ms          (1 %)
    tran: time = 31.37 s     (62.7 %), step = 500 ms          (1 %)
    tran: time = 33.87 s     (67.7 %), step = 500 ms          (1 %)
    tran: time = 36.37 s     (72.7 %), step = 500 ms          (1 %)
    tran: time = 38.87 s     (77.7 %), step = 500 ms          (1 %)
    tran: time = 41.37 s     (82.7 %), step = 500 ms          (1 %)
    tran: time = 43.87 s     (87.7 %), step = 500 ms          (1 %)
    tran: time = 46.37 s     (92.7 %), step = 500 ms          (1 %)
    tran: time = 48.87 s     (97.7 %), step = 500 ms          (1 %)
Number of accepted tran steps =             741

Maximum value achieved for any signal of each quantity: 
V: V(vout) = 3.3 V
I: I(V8:p) = 6.359 uA

~~~~~~~~~~~~~~~~~~~~~~~~~~~~~~~~~
Post-Transient Simulation Summary
~~~~~~~~~~~~~~~~~~~~~~~~~~~~~~~~~
   -   To further speed up simulation, consider
          add ++aps on command line
   -   Non-default settings that could significantly slow down simulation
          errpreset = conservative, default moderate
          reltol = 10e-06, default 100e-06 (conservative)
~~~~~~~~~~~~~~~~~~~~~~~~~~~~~~~~~


During simulation, the CPU load for active processors is :
         0 (11.2 %)      1 (53.6 %)      2 (32.5 %)      3 (30.6 %)
         4 (35.0 %)      5 (65.5 %)      6 (6.8 %)       7 (100.0 %)
         8 (5.5 %)       9 (41.7 %)     10 (62.9 %)     11 (6.1 %)
        12 (28.5 %)     13 (45.7 %)     14 (39.3 %)     15 (24.7 %)
        16 (32.1 %)     17 (75.9 %)     18 (37.9 %)     19 (29.5 %)
        20 (35.3 %)     21 (24.2 %)     22 (41.7 %)     23 (42.3 %)
        24 (11.9 %)     25 (83.2 %)     26 (14.1 %)     27 (37.5 %)
        28 (74.9 %)     29 (76.4 %)     30 (30.8 %)     31 (12.4 %)
        32 (94.7 %)     33 (79.6 %)     34 (5.5 %)      35 (9.2 %)
        36 (100.0 %)    37 (25.7 %)     38 (17.9 %)     39 (23.6 %)
        40 (100.0 %)    41 (22.0 %)     42 (13.1 %)     43 (46.2 %)
        44 (55.2 %)     45 (8.1 %)      46 (26.2 %)     47 (23.7 %)
        Total: 1900.3%
Initial condition solution time: CPU = 2.443 ms, elapsed = 2.44403 ms.
Intrinsic tran analysis time:    CPU = 405.256 ms, elapsed = 406.51 ms.
Total time required for tran analysis `tran': CPU = 410.246 ms, elapsed = 412.077 ms, util. = 99.6%.
Time accumulated: CPU = 2.06946 s, elapsed = 3.00636 s.
Peak resident memory used = 215 Mbytes.


Notice from spectre during transient analysis `tran', during Monte Carlo analysis `mc1'.
    34 warnings suppressed.

finalTimeOP: writing operating point information to rawfile.

Opening the PSF file ../psf/mc1_separate/078/finalTimeOP.info ...
modelParameter: writing model parameter values to rawfile.

Opening the PSF file ../psf/mc1_separate/078/modelParameter.info ...
element: writing instance parameter values to rawfile.

Opening the PSF file ../psf/mc1_separate/078/element.info ...
outputParameter: writing output parameter values to rawfile.

Opening the PSF file ../psf/mc1_separate/078/outputParameter.info ...
designParamVals: writing netlist parameters to rawfile.

Opening the PSFASCII file ../psf/mc1_separate/078/designParamVals.info ...
primitives: writing primitives to rawfile.

Opening the PSFASCII file ../psf/mc1_separate/078/primitives.info.primitives ...
subckts: writing subcircuits to rawfile.

Opening the PSFASCII file ../psf/mc1_separate/078/subckts.info.subckts ...
    mc1: iteration = 78          (8.33 %), step = 1            (4.17 %)
79  12.50% 

*****************************************************************************************
* 
* INFO: AMS_processOption = C35B4C3
* 
* INFO: Valid Modules  PIP VG5 HIRES
* 
*****************************************************************************************


Notice from spectre during Monte Carlo analysis `mc1'.
    V8: `period' has the unusually large value of 100 s.


***********************************************
Transient Analysis `tran': time = (0 s -> 50 s)
***********************************************

Opening the PSF file ../psf/mc1_separate/079/tran.tran.tran ...

Warning from spectre during check, during IC analysis, during transient analysis `tran', during Monte Carlo analysis `mc1'.
    WARNING (CMI-2943): Parameter checks have been ignored because the valid value for parameter 'trise' could not be found in 'C1'.
    WARNING (CMI-2943): Parameter checks have been ignored because the valid value for parameter 'trise' could not be found in 'I0.R2.CM'.
    WARNING (CMI-2943): Parameter checks have been ignored because the valid value for parameter 'trise' could not be found in 'I0.R2.CS1'.
    WARNING (CMI-2943): Parameter checks have been ignored because the valid value for parameter 'trise' could not be found in 'I0.R2.CS0'.
    WARNING (CMI-2943): Parameter checks have been ignored because the valid value for parameter 'trise' could not be found in 'I0.C8<3>.C1'.
        Further occurrences of this warning will be suppressed.

Convergence achieved in 12 iterations.
DC simulation time: CPU = 2.318 ms, elapsed = 2.3191 ms.
Important parameter values:
    start = 0 s
    outputstart = 0 s
    stop = 50 s
    step = 50 ms
    maxstep = 500 ms
    ic = all
    useprevic = no
    skipdc = no
    reltol = 10e-06
    abstol(V) = 1 uV
    abstol(I) = 1 pA
    temp = 27 C
    tnom = 27 C
    tempeffects = all
    errpreset = conservative
    method = gear2only
    lteratio = 10
    relref = alllocal
    cmin = 0 F
    gmin = 1 pS
    rabsshort = 1 mOhm


Notice from spectre during transient analysis `tran', during Monte Carlo analysis `mc1'.
    Multithreading is disabled due to the size of the design being too small.


Output and IC/nodeset summary:
                 save   8       (current)
                 save   87      (voltage)

    tran: time = 1.332 s     (2.66 %), step = 106.4 ms     (213 m%)
    tran: time = 3.781 s     (7.56 %), step = 83.67 ms     (167 m%)
    tran: time = 6.506 s       (13 %), step = 362.9 ms     (726 m%)
    tran: time = 8.807 s     (17.6 %), step = 500 ms          (1 %)
    tran: time = 11.31 s     (22.6 %), step = 500 ms          (1 %)
    tran: time = 13.81 s     (27.6 %), step = 500 ms          (1 %)
    tran: time = 16.31 s     (32.6 %), step = 500 ms          (1 %)
    tran: time = 18.81 s     (37.6 %), step = 500 ms          (1 %)
    tran: time = 21.31 s     (42.6 %), step = 500 ms          (1 %)
    tran: time = 23.81 s     (47.6 %), step = 500 ms          (1 %)
    tran: time = 26.31 s     (52.6 %), step = 500 ms          (1 %)
    tran: time = 28.81 s     (57.6 %), step = 500 ms          (1 %)
    tran: time = 31.31 s     (62.6 %), step = 500 ms          (1 %)
    tran: time = 33.81 s     (67.6 %), step = 500 ms          (1 %)
    tran: time = 36.31 s     (72.6 %), step = 500 ms          (1 %)
    tran: time = 38.81 s     (77.6 %), step = 500 ms          (1 %)
    tran: time = 41.31 s     (82.6 %), step = 500 ms          (1 %)
    tran: time = 43.81 s     (87.6 %), step = 500 ms          (1 %)
    tran: time = 46.31 s     (92.6 %), step = 500 ms          (1 %)
    tran: time = 48.81 s     (97.6 %), step = 500 ms          (1 %)
Number of accepted tran steps =             724

Maximum value achieved for any signal of each quantity: 
V: V(vout_filt) = 3.3 V
I: I(V8:p) = 6.486 uA

~~~~~~~~~~~~~~~~~~~~~~~~~~~~~~~~~
Post-Transient Simulation Summary
~~~~~~~~~~~~~~~~~~~~~~~~~~~~~~~~~
   -   To further speed up simulation, consider
          add ++aps on command line
   -   Non-default settings that could significantly slow down simulation
          errpreset = conservative, default moderate
          reltol = 10e-06, default 100e-06 (conservative)
~~~~~~~~~~~~~~~~~~~~~~~~~~~~~~~~~


During simulation, the CPU load for active processors is :
         0 (11.6 %)      1 (59.3 %)      2 (41.7 %)      3 (26.9 %)
         4 (43.8 %)      5 (69.3 %)      6 (7.4 %)       7 (100.0 %)
         8 (6.0 %)       9 (36.7 %)     10 (55.0 %)     11 (6.5 %)
        12 (27.6 %)     13 (52.7 %)     14 (47.4 %)     15 (35.1 %)
        16 (28.8 %)     17 (66.6 %)     18 (46.3 %)     19 (27.1 %)
        20 (43.6 %)     21 (21.5 %)     22 (36.4 %)     23 (36.8 %)
        24 (11.0 %)     25 (73.5 %)     26 (13.2 %)     27 (32.8 %)
        28 (66.1 %)     29 (79.7 %)     30 (33.9 %)     31 (12.9 %)
        32 (87.7 %)     33 (82.5 %)     34 (6.0 %)      35 (21.1 %)
        36 (100.0 %)    37 (36.0 %)     38 (16.1 %)     39 (34.3 %)
        40 (100.0 %)    41 (22.4 %)     42 (11.9 %)     43 (41.6 %)
        44 (48.1 %)     45 (7.6 %)      46 (36.2 %)     47 (23.1 %)
        Total: 1931.3%
Initial condition solution time: CPU = 2.357 ms, elapsed = 2.35891 ms.
Intrinsic tran analysis time:    CPU = 386.73 ms, elapsed = 388.272 ms.
Total time required for tran analysis `tran': CPU = 391.799 ms, elapsed = 393.962 ms, util. = 99.5%.
Time accumulated: CPU = 2.50167 s, elapsed = 3.45168 s.
Peak resident memory used = 216 Mbytes.


Notice from spectre during transient analysis `tran', during Monte Carlo analysis `mc1'.
    34 warnings suppressed.

finalTimeOP: writing operating point information to rawfile.

Opening the PSF file ../psf/mc1_separate/079/finalTimeOP.info ...
modelParameter: writing model parameter values to rawfile.

Opening the PSF file ../psf/mc1_separate/079/modelParameter.info ...
element: writing instance parameter values to rawfile.

Opening the PSF file ../psf/mc1_separate/079/element.info ...
outputParameter: writing output parameter values to rawfile.

Opening the PSF file ../psf/mc1_separate/079/outputParameter.info ...
designParamVals: writing netlist parameters to rawfile.

Opening the PSFASCII file ../psf/mc1_separate/079/designParamVals.info ...
primitives: writing primitives to rawfile.

Opening the PSFASCII file ../psf/mc1_separate/079/primitives.info.primitives ...
subckts: writing subcircuits to rawfile.

Opening the PSFASCII file ../psf/mc1_separate/079/subckts.info.subckts ...
    mc1: iteration = 79          (12.5 %), step = 1            (4.17 %)
80  16.67% 

*****************************************************************************************
* 
* INFO: AMS_processOption = C35B4C3
* 
* INFO: Valid Modules  PIP VG5 HIRES
* 
*****************************************************************************************


Notice from spectre during Monte Carlo analysis `mc1'.
    V8: `period' has the unusually large value of 100 s.


***********************************************
Transient Analysis `tran': time = (0 s -> 50 s)
***********************************************

Opening the PSF file ../psf/mc1_separate/080/tran.tran.tran ...

Warning from spectre during check, during IC analysis, during transient analysis `tran', during Monte Carlo analysis `mc1'.
    WARNING (CMI-2943): Parameter checks have been ignored because the valid value for parameter 'trise' could not be found in 'C1'.
    WARNING (CMI-2943): Parameter checks have been ignored because the valid value for parameter 'trise' could not be found in 'I0.R2.CM'.
    WARNING (CMI-2943): Parameter checks have been ignored because the valid value for parameter 'trise' could not be found in 'I0.R2.CS1'.
    WARNING (CMI-2943): Parameter checks have been ignored because the valid value for parameter 'trise' could not be found in 'I0.R2.CS0'.
    WARNING (CMI-2943): Parameter checks have been ignored because the valid value for parameter 'trise' could not be found in 'I0.C8<3>.C1'.
        Further occurrences of this warning will be suppressed.

Convergence achieved in 12 iterations.
DC simulation time: CPU = 2.28 ms, elapsed = 2.29001 ms.
Important parameter values:
    start = 0 s
    outputstart = 0 s
    stop = 50 s
    step = 50 ms
    maxstep = 500 ms
    ic = all
    useprevic = no
    skipdc = no
    reltol = 10e-06
    abstol(V) = 1 uV
    abstol(I) = 1 pA
    temp = 27 C
    tnom = 27 C
    tempeffects = all
    errpreset = conservative
    method = gear2only
    lteratio = 10
    relref = alllocal
    cmin = 0 F
    gmin = 1 pS
    rabsshort = 1 mOhm


Notice from spectre during transient analysis `tran', during Monte Carlo analysis `mc1'.
    Multithreading is disabled due to the size of the design being too small.


Output and IC/nodeset summary:
                 save   8       (current)
                 save   87      (voltage)

    tran: time = 1.29 s      (2.58 %), step = 96.29 ms     (193 m%)
    tran: time = 3.872 s     (7.74 %), step = 198.9 ms     (398 m%)
    tran: time = 6.454 s     (12.9 %), step = 435.8 ms     (872 m%)
    tran: time = 8.923 s     (17.8 %), step = 500 ms          (1 %)
    tran: time = 11.42 s     (22.8 %), step = 500 ms          (1 %)
    tran: time = 13.92 s     (27.8 %), step = 500 ms          (1 %)
    tran: time = 16.42 s     (32.8 %), step = 500 ms          (1 %)
    tran: time = 18.92 s     (37.8 %), step = 500 ms          (1 %)
    tran: time = 21.42 s     (42.8 %), step = 500 ms          (1 %)
    tran: time = 23.92 s     (47.8 %), step = 500 ms          (1 %)
    tran: time = 26.42 s     (52.8 %), step = 500 ms          (1 %)
    tran: time = 28.92 s     (57.8 %), step = 500 ms          (1 %)
    tran: time = 31.42 s     (62.8 %), step = 500 ms          (1 %)
    tran: time = 33.92 s     (67.8 %), step = 500 ms          (1 %)
    tran: time = 36.42 s     (72.8 %), step = 500 ms          (1 %)
    tran: time = 38.92 s     (77.8 %), step = 500 ms          (1 %)
    tran: time = 41.42 s     (82.8 %), step = 500 ms          (1 %)
    tran: time = 43.92 s     (87.8 %), step = 500 ms          (1 %)
    tran: time = 46.42 s     (92.8 %), step = 500 ms          (1 %)
    tran: time = 48.92 s     (97.8 %), step = 500 ms          (1 %)
Number of accepted tran steps =             741

Maximum value achieved for any signal of each quantity: 
V: V(vout_filt) = 3.3 V
I: I(V8:p) = 6.572 uA

~~~~~~~~~~~~~~~~~~~~~~~~~~~~~~~~~
Post-Transient Simulation Summary
~~~~~~~~~~~~~~~~~~~~~~~~~~~~~~~~~
   -   To further speed up simulation, consider
          add ++aps on command line
   -   Non-default settings that could significantly slow down simulation
          errpreset = conservative, default moderate
          reltol = 10e-06, default 100e-06 (conservative)
~~~~~~~~~~~~~~~~~~~~~~~~~~~~~~~~~


During simulation, the CPU load for active processors is :
         0 (12.4 %)      1 (64.2 %)      2 (48.2 %)      3 (24.3 %)
         4 (50.4 %)      5 (72.8 %)      6 (7.9 %)       7 (100.0 %)
         8 (6.1 %)       9 (33.7 %)     10 (51.6 %)     11 (7.9 %)
        12 (26.3 %)     13 (56.7 %)     14 (53.5 %)     15 (32.2 %)
        16 (26.8 %)     17 (60.7 %)     18 (49.7 %)     19 (34.0 %)
        20 (45.9 %)     21 (22.4 %)     22 (38.7 %)     23 (34.7 %)
        24 (12.4 %)     25 (76.0 %)     26 (12.9 %)     27 (29.7 %)
        28 (58.8 %)     29 (80.3 %)     30 (40.3 %)     31 (14.8 %)
        32 (79.0 %)     33 (84.6 %)     34 (6.9 %)      35 (29.2 %)
        36 (100.0 %)    37 (35.0 %)     38 (15.1 %)     39 (41.9 %)
        40 (100.0 %)    41 (23.4 %)     42 (20.2 %)     43 (39.9 %)
        44 (44.8 %)     45 (7.0 %)      46 (43.4 %)     47 (22.3 %)
        Total: 1979.1%
Initial condition solution time: CPU = 2.324 ms, elapsed = 2.33507 ms.
Intrinsic tran analysis time:    CPU = 394.537 ms, elapsed = 396.634 ms.
Total time required for tran analysis `tran': CPU = 399.155 ms, elapsed = 402.074 ms, util. = 99.3%.
Time accumulated: CPU = 2.93913 s, elapsed = 3.90293 s.
Peak resident memory used = 216 Mbytes.


Notice from spectre during transient analysis `tran', during Monte Carlo analysis `mc1'.
    34 warnings suppressed.

finalTimeOP: writing operating point information to rawfile.

Opening the PSF file ../psf/mc1_separate/080/finalTimeOP.info ...
modelParameter: writing model parameter values to rawfile.

Opening the PSF file ../psf/mc1_separate/080/modelParameter.info ...
element: writing instance parameter values to rawfile.

Opening the PSF file ../psf/mc1_separate/080/element.info ...
outputParameter: writing output parameter values to rawfile.

Opening the PSF file ../psf/mc1_separate/080/outputParameter.info ...
designParamVals: writing netlist parameters to rawfile.

Opening the PSFASCII file ../psf/mc1_separate/080/designParamVals.info ...
primitives: writing primitives to rawfile.

Opening the PSFASCII file ../psf/mc1_separate/080/primitives.info.primitives ...
subckts: writing subcircuits to rawfile.

Opening the PSFASCII file ../psf/mc1_separate/080/subckts.info.subckts ...
    mc1: iteration = 80          (16.7 %), step = 1            (4.17 %)
81  20.83% 

*****************************************************************************************
* 
* INFO: AMS_processOption = C35B4C3
* 
* INFO: Valid Modules  PIP VG5 HIRES
* 
*****************************************************************************************


Notice from spectre during Monte Carlo analysis `mc1'.
    V8: `period' has the unusually large value of 100 s.


***********************************************
Transient Analysis `tran': time = (0 s -> 50 s)
***********************************************

Opening the PSF file ../psf/mc1_separate/081/tran.tran.tran ...

Warning from spectre during check, during IC analysis, during transient analysis `tran', during Monte Carlo analysis `mc1'.
    WARNING (CMI-2943): Parameter checks have been ignored because the valid value for parameter 'trise' could not be found in 'C1'.
    WARNING (CMI-2943): Parameter checks have been ignored because the valid value for parameter 'trise' could not be found in 'I0.R2.CM'.
    WARNING (CMI-2943): Parameter checks have been ignored because the valid value for parameter 'trise' could not be found in 'I0.R2.CS1'.
    WARNING (CMI-2943): Parameter checks have been ignored because the valid value for parameter 'trise' could not be found in 'I0.R2.CS0'.
    WARNING (CMI-2943): Parameter checks have been ignored because the valid value for parameter 'trise' could not be found in 'I0.C8<3>.C1'.
        Further occurrences of this warning will be suppressed.

Convergence achieved in 12 iterations.
DC simulation time: CPU = 2.347 ms, elapsed = 2.34914 ms.
Important parameter values:
    start = 0 s
    outputstart = 0 s
    stop = 50 s
    step = 50 ms
    maxstep = 500 ms
    ic = all
    useprevic = no
    skipdc = no
    reltol = 10e-06
    abstol(V) = 1 uV
    abstol(I) = 1 pA
    temp = 27 C
    tnom = 27 C
    tempeffects = all
    errpreset = conservative
    method = gear2only
    lteratio = 10
    relref = alllocal
    cmin = 0 F
    gmin = 1 pS
    rabsshort = 1 mOhm


Notice from spectre during transient analysis `tran', during Monte Carlo analysis `mc1'.
    Multithreading is disabled due to the size of the design being too small.


Output and IC/nodeset summary:
                 save   8       (current)
                 save   87      (voltage)

    tran: time = 1.337 s     (2.67 %), step = 127 ms       (254 m%)
    tran: time = 3.979 s     (7.96 %), step = 367.5 ms     (735 m%)
    tran: time = 6.285 s     (12.6 %), step = 500 ms          (1 %)
    tran: time = 8.785 s     (17.6 %), step = 500 ms          (1 %)
    tran: time = 11.29 s     (22.6 %), step = 500 ms          (1 %)
    tran: time = 13.79 s     (27.6 %), step = 500 ms          (1 %)
    tran: time = 16.29 s     (32.6 %), step = 500 ms          (1 %)
    tran: time = 18.79 s     (37.6 %), step = 500 ms          (1 %)
    tran: time = 21.29 s     (42.6 %), step = 500 ms          (1 %)
    tran: time = 23.79 s     (47.6 %), step = 500 ms          (1 %)
    tran: time = 26.29 s     (52.6 %), step = 500 ms          (1 %)
    tran: time = 28.79 s     (57.6 %), step = 500 ms          (1 %)
    tran: time = 31.29 s     (62.6 %), step = 500 ms          (1 %)
    tran: time = 33.79 s     (67.6 %), step = 500 ms          (1 %)
    tran: time = 36.29 s     (72.6 %), step = 500 ms          (1 %)
    tran: time = 38.79 s     (77.6 %), step = 500 ms          (1 %)
    tran: time = 41.29 s     (82.6 %), step = 500 ms          (1 %)
    tran: time = 43.79 s     (87.6 %), step = 500 ms          (1 %)
    tran: time = 46.29 s     (92.6 %), step = 500 ms          (1 %)
    tran: time = 48.79 s     (97.6 %), step = 500 ms          (1 %)
Number of accepted tran steps =             740

Maximum value achieved for any signal of each quantity: 
V: V(vout) = 3.3 V
I: I(V8:p) = 6.459 uA

~~~~~~~~~~~~~~~~~~~~~~~~~~~~~~~~~
Post-Transient Simulation Summary
~~~~~~~~~~~~~~~~~~~~~~~~~~~~~~~~~
   -   To further speed up simulation, consider
          add ++aps on command line
   -   Non-default settings that could significantly slow down simulation
          errpreset = conservative, default moderate
          reltol = 10e-06, default 100e-06 (conservative)
~~~~~~~~~~~~~~~~~~~~~~~~~~~~~~~~~


During simulation, the CPU load for active processors is :
         0 (12.2 %)      1 (68.2 %)      2 (44.4 %)      3 (22.3 %)
         4 (55.0 %)      5 (75.1 %)      6 (7.7 %)       7 (100.0 %)
         8 (6.9 %)       9 (40.3 %)     10 (46.8 %)     11 (7.5 %)
        12 (25.6 %)     13 (51.5 %)     14 (57.5 %)     15 (29.6 %)
        16 (25.4 %)     17 (55.3 %)     18 (46.7 %)     19 (40.5 %)
        20 (51.8 %)     21 (21.3 %)     22 (45.3 %)     23 (36.7 %)
        24 (22.2 %)     25 (78.4 %)     26 (17.6 %)     27 (30.5 %)
        28 (53.2 %)     29 (72.3 %)     30 (36.7 %)     31 (24.0 %)
        32 (71.8 %)     33 (86.3 %)     34 (6.9 %)      35 (36.9 %)
        36 (100.0 %)    37 (33.1 %)     38 (15.6 %)     39 (40.4 %)
        40 (100.0 %)    41 (22.7 %)     42 (29.1 %)     43 (37.2 %)
        44 (48.0 %)     45 (8.0 %)      46 (48.8 %)     47 (21.1 %)
        Total: 2014.7%
Initial condition solution time: CPU = 2.408 ms, elapsed = 2.40898 ms.
Intrinsic tran analysis time:    CPU = 397.337 ms, elapsed = 398.921 ms.
Total time required for tran analysis `tran': CPU = 402.307 ms, elapsed = 404.696 ms, util. = 99.4%.
Time accumulated: CPU = 3.38196 s, elapsed = 4.35851 s.
Peak resident memory used = 216 Mbytes.


Notice from spectre during transient analysis `tran', during Monte Carlo analysis `mc1'.
    34 warnings suppressed.

finalTimeOP: writing operating point information to rawfile.

Opening the PSF file ../psf/mc1_separate/081/finalTimeOP.info ...
modelParameter: writing model parameter values to rawfile.

Opening the PSF file ../psf/mc1_separate/081/modelParameter.info ...
element: writing instance parameter values to rawfile.

Opening the PSF file ../psf/mc1_separate/081/element.info ...
outputParameter: writing output parameter values to rawfile.

Opening the PSF file ../psf/mc1_separate/081/outputParameter.info ...
designParamVals: writing netlist parameters to rawfile.

Opening the PSFASCII file ../psf/mc1_separate/081/designParamVals.info ...
primitives: writing primitives to rawfile.

Opening the PSFASCII file ../psf/mc1_separate/081/primitives.info.primitives ...
subckts: writing subcircuits to rawfile.

Opening the PSFASCII file ../psf/mc1_separate/081/subckts.info.subckts ...
    mc1: iteration = 81          (20.8 %), step = 1            (4.17 %)
82  25.00% 

*****************************************************************************************
* 
* INFO: AMS_processOption = C35B4C3
* 
* INFO: Valid Modules  PIP VG5 HIRES
* 
*****************************************************************************************


Notice from spectre during Monte Carlo analysis `mc1'.
    V8: `period' has the unusually large value of 100 s.


***********************************************
Transient Analysis `tran': time = (0 s -> 50 s)
***********************************************

Opening the PSF file ../psf/mc1_separate/082/tran.tran.tran ...

Warning from spectre during check, during IC analysis, during transient analysis `tran', during Monte Carlo analysis `mc1'.
    WARNING (CMI-2943): Parameter checks have been ignored because the valid value for parameter 'trise' could not be found in 'C1'.
    WARNING (CMI-2943): Parameter checks have been ignored because the valid value for parameter 'trise' could not be found in 'I0.R2.CM'.
    WARNING (CMI-2943): Parameter checks have been ignored because the valid value for parameter 'trise' could not be found in 'I0.R2.CS1'.
    WARNING (CMI-2943): Parameter checks have been ignored because the valid value for parameter 'trise' could not be found in 'I0.R2.CS0'.
    WARNING (CMI-2943): Parameter checks have been ignored because the valid value for parameter 'trise' could not be found in 'I0.C8<3>.C1'.
        Further occurrences of this warning will be suppressed.

Convergence achieved in 12 iterations.
DC simulation time: CPU = 2.287 ms, elapsed = 2.28691 ms.
Important parameter values:
    start = 0 s
    outputstart = 0 s
    stop = 50 s
    step = 50 ms
    maxstep = 500 ms
    ic = all
    useprevic = no
    skipdc = no
    reltol = 10e-06
    abstol(V) = 1 uV
    abstol(I) = 1 pA
    temp = 27 C
    tnom = 27 C
    tempeffects = all
    errpreset = conservative
    method = gear2only
    lteratio = 10
    relref = alllocal
    cmin = 0 F
    gmin = 1 pS
    rabsshort = 1 mOhm


Notice from spectre during transient analysis `tran', during Monte Carlo analysis `mc1'.
    Multithreading is disabled due to the size of the design being too small.


Output and IC/nodeset summary:
                 save   8       (current)
                 save   87      (voltage)

    tran: time = 1.372 s     (2.74 %), step = 130.5 ms     (261 m%)
    tran: time = 4.115 s     (8.23 %), step = 385.8 ms     (772 m%)
    tran: time = 6.498 s       (13 %), step = 500 ms          (1 %)
    tran: time = 8.998 s       (18 %), step = 500 ms          (1 %)
    tran: time = 11.5 s        (23 %), step = 500 ms          (1 %)
    tran: time = 14 s          (28 %), step = 500 ms          (1 %)
    tran: time = 16.5 s        (33 %), step = 500 ms          (1 %)
    tran: time = 19 s          (38 %), step = 500 ms          (1 %)
    tran: time = 21.5 s        (43 %), step = 500 ms          (1 %)
    tran: time = 24 s          (48 %), step = 500 ms          (1 %)
    tran: time = 26.5 s        (53 %), step = 500 ms          (1 %)
    tran: time = 29 s          (58 %), step = 500 ms          (1 %)
    tran: time = 31.5 s        (63 %), step = 500 ms          (1 %)
    tran: time = 34 s          (68 %), step = 500 ms          (1 %)
    tran: time = 36.5 s        (73 %), step = 500 ms          (1 %)
    tran: time = 39 s          (78 %), step = 500 ms          (1 %)
    tran: time = 41.5 s        (83 %), step = 500 ms          (1 %)
    tran: time = 44 s          (88 %), step = 500 ms          (1 %)
    tran: time = 46.5 s        (93 %), step = 500 ms          (1 %)
    tran: time = 49 s          (98 %), step = 500 ms          (1 %)
Number of accepted tran steps =             737

Maximum value achieved for any signal of each quantity: 
V: V(S<0>) = 3.3 V
I: I(V8:p) = 6.598 uA

~~~~~~~~~~~~~~~~~~~~~~~~~~~~~~~~~
Post-Transient Simulation Summary
~~~~~~~~~~~~~~~~~~~~~~~~~~~~~~~~~
   -   To further speed up simulation, consider
          add ++aps on command line
   -   Non-default settings that could significantly slow down simulation
          errpreset = conservative, default moderate
          reltol = 10e-06, default 100e-06 (conservative)
~~~~~~~~~~~~~~~~~~~~~~~~~~~~~~~~~


During simulation, the CPU load for active processors is :
         0 (12.1 %)      1 (71.4 %)      2 (40.9 %)      3 (20.7 %)
         4 (59.5 %)      5 (77.3 %)      6 (7.4 %)       7 (100.0 %)
         8 (6.2 %)       9 (45.9 %)     10 (42.6 %)     11 (6.8 %)
        12 (24.8 %)     13 (47.8 %)     14 (52.2 %)     15 (36.5 %)
        16 (25.8 %)     17 (50.7 %)     18 (51.9 %)     19 (44.2 %)
        20 (54.0 %)     21 (19.9 %)     22 (50.5 %)     23 (34.0 %)
        24 (29.9 %)     25 (79.8 %)     26 (23.2 %)     27 (32.3 %)
        28 (51.3 %)     29 (65.7 %)     30 (33.4 %)     31 (31.6 %)
        32 (65.2 %)     33 (87.7 %)     34 (6.5 %)      35 (37.5 %)
        36 (100.0 %)    37 (31.0 %)     38 (23.5 %)     39 (37.2 %)
        40 (100.0 %)    41 (22.5 %)     42 (35.3 %)     43 (35.2 %)
        44 (47.8 %)     45 (7.9 %)      46 (50.5 %)     47 (20.5 %)
        Total: 2038.5%
Initial condition solution time: CPU = 2.333 ms, elapsed = 2.33412 ms.
Intrinsic tran analysis time:    CPU = 393.431 ms, elapsed = 394.74 ms.
Total time required for tran analysis `tran': CPU = 398.274 ms, elapsed = 400.173 ms, util. = 99.5%.
Time accumulated: CPU = 3.82343 s, elapsed = 4.81221 s.
Peak resident memory used = 216 Mbytes.


Notice from spectre during transient analysis `tran', during Monte Carlo analysis `mc1'.
    34 warnings suppressed.

finalTimeOP: writing operating point information to rawfile.

Opening the PSF file ../psf/mc1_separate/082/finalTimeOP.info ...
modelParameter: writing model parameter values to rawfile.

Opening the PSF file ../psf/mc1_separate/082/modelParameter.info ...
element: writing instance parameter values to rawfile.

Opening the PSF file ../psf/mc1_separate/082/element.info ...
outputParameter: writing output parameter values to rawfile.

Opening the PSF file ../psf/mc1_separate/082/outputParameter.info ...
designParamVals: writing netlist parameters to rawfile.

Opening the PSFASCII file ../psf/mc1_separate/082/designParamVals.info ...
primitives: writing primitives to rawfile.

Opening the PSFASCII file ../psf/mc1_separate/082/primitives.info.primitives ...
subckts: writing subcircuits to rawfile.

Opening the PSFASCII file ../psf/mc1_separate/082/subckts.info.subckts ...
    mc1: iteration = 82            (25 %), step = 1            (4.17 %)
83  29.17% 

*****************************************************************************************
* 
* INFO: AMS_processOption = C35B4C3
* 
* INFO: Valid Modules  PIP VG5 HIRES
* 
*****************************************************************************************


Notice from spectre during Monte Carlo analysis `mc1'.
    V8: `period' has the unusually large value of 100 s.


***********************************************
Transient Analysis `tran': time = (0 s -> 50 s)
***********************************************

Opening the PSF file ../psf/mc1_separate/083/tran.tran.tran ...

Warning from spectre during check, during IC analysis, during transient analysis `tran', during Monte Carlo analysis `mc1'.
    WARNING (CMI-2943): Parameter checks have been ignored because the valid value for parameter 'trise' could not be found in 'C1'.
    WARNING (CMI-2943): Parameter checks have been ignored because the valid value for parameter 'trise' could not be found in 'I0.R2.CM'.
    WARNING (CMI-2943): Parameter checks have been ignored because the valid value for parameter 'trise' could not be found in 'I0.R2.CS1'.
    WARNING (CMI-2943): Parameter checks have been ignored because the valid value for parameter 'trise' could not be found in 'I0.R2.CS0'.
    WARNING (CMI-2943): Parameter checks have been ignored because the valid value for parameter 'trise' could not be found in 'I0.C8<3>.C1'.
        Further occurrences of this warning will be suppressed.

Convergence achieved in 12 iterations.
DC simulation time: CPU = 2.299 ms, elapsed = 2.29907 ms.
Important parameter values:
    start = 0 s
    outputstart = 0 s
    stop = 50 s
    step = 50 ms
    maxstep = 500 ms
    ic = all
    useprevic = no
    skipdc = no
    reltol = 10e-06
    abstol(V) = 1 uV
    abstol(I) = 1 pA
    temp = 27 C
    tnom = 27 C
    tempeffects = all
    errpreset = conservative
    method = gear2only
    lteratio = 10
    relref = alllocal
    cmin = 0 F
    gmin = 1 pS
    rabsshort = 1 mOhm


Notice from spectre during transient analysis `tran', during Monte Carlo analysis `mc1'.
    Multithreading is disabled due to the size of the design being too small.


Output and IC/nodeset summary:
                 save   8       (current)
                 save   87      (voltage)

    tran: time = 1.333 s     (2.67 %), step = 96.11 ms     (192 m%)
    tran: time = 4.098 s      (8.2 %), step = 360.5 ms     (721 m%)
    tran: time = 6.38 s      (12.8 %), step = 500 ms          (1 %)
    tran: time = 8.88 s      (17.8 %), step = 500 ms          (1 %)
    tran: time = 11.38 s     (22.8 %), step = 500 ms          (1 %)
    tran: time = 13.88 s     (27.8 %), step = 500 ms          (1 %)
    tran: time = 16.38 s     (32.8 %), step = 500 ms          (1 %)
    tran: time = 18.88 s     (37.8 %), step = 500 ms          (1 %)
    tran: time = 21.38 s     (42.8 %), step = 500 ms          (1 %)
    tran: time = 23.88 s     (47.8 %), step = 500 ms          (1 %)
    tran: time = 26.38 s     (52.8 %), step = 500 ms          (1 %)
    tran: time = 28.88 s     (57.8 %), step = 500 ms          (1 %)
    tran: time = 31.38 s     (62.8 %), step = 500 ms          (1 %)
    tran: time = 33.88 s     (67.8 %), step = 500 ms          (1 %)
    tran: time = 36.38 s     (72.8 %), step = 500 ms          (1 %)
    tran: time = 38.88 s     (77.8 %), step = 500 ms          (1 %)
    tran: time = 41.38 s     (82.8 %), step = 500 ms          (1 %)
    tran: time = 43.88 s     (87.8 %), step = 500 ms          (1 %)
    tran: time = 46.38 s     (92.8 %), step = 500 ms          (1 %)
    tran: time = 48.88 s     (97.8 %), step = 500 ms          (1 %)
Number of accepted tran steps =             746

Maximum value achieved for any signal of each quantity: 
V: V(vout) = 3.3 V
I: I(V8:p) = 6.314 uA

~~~~~~~~~~~~~~~~~~~~~~~~~~~~~~~~~
Post-Transient Simulation Summary
~~~~~~~~~~~~~~~~~~~~~~~~~~~~~~~~~
   -   To further speed up simulation, consider
          add ++aps on command line
   -   Non-default settings that could significantly slow down simulation
          errpreset = conservative, default moderate
          reltol = 10e-06, default 100e-06 (conservative)
~~~~~~~~~~~~~~~~~~~~~~~~~~~~~~~~~


During simulation, the CPU load for active processors is :
         0 (12.0 %)      1 (74.0 %)      2 (37.6 %)      3 (22.4 %)
         4 (59.6 %)      5 (78.6 %)      6 (7.5 %)       7 (100.0 %)
         8 (14.7 %)      9 (42.3 %)     10 (39.5 %)     11 (7.2 %)
        12 (24.5 %)     13 (45.3 %)     14 (55.8 %)     15 (41.6 %)
        16 (25.8 %)     17 (46.6 %)     18 (55.8 %)     19 (40.5 %)
        20 (52.3 %)     21 (24.9 %)     22 (51.3 %)     23 (33.7 %)
        24 (36.3 %)     25 (81.7 %)     26 (21.5 %)     27 (37.6 %)
        28 (55.4 %)     29 (60.1 %)     30 (31.0 %)     31 (37.3 %)
        32 (59.7 %)     33 (88.8 %)     34 (5.9 %)      35 (34.6 %)
        36 (100.0 %)    37 (29.9 %)     38 (23.4 %)     39 (36.2 %)
        40 (100.0 %)    41 (21.3 %)     42 (40.8 %)     43 (36.0 %)
        44 (49.9 %)     45 (8.5 %)      46 (49.4 %)     47 (25.5 %)
        Total: 2064.5%
Initial condition solution time: CPU = 2.343 ms, elapsed = 2.34413 ms.
Intrinsic tran analysis time:    CPU = 400.653 ms, elapsed = 401.906 ms.
Total time required for tran analysis `tran': CPU = 405.538 ms, elapsed = 407.458 ms, util. = 99.5%.
Time accumulated: CPU = 4.27023 s, elapsed = 5.27194 s.
Peak resident memory used = 216 Mbytes.


Notice from spectre during transient analysis `tran', during Monte Carlo analysis `mc1'.
    34 warnings suppressed.

finalTimeOP: writing operating point information to rawfile.

Opening the PSF file ../psf/mc1_separate/083/finalTimeOP.info ...
modelParameter: writing model parameter values to rawfile.

Opening the PSF file ../psf/mc1_separate/083/modelParameter.info ...
element: writing instance parameter values to rawfile.

Opening the PSF file ../psf/mc1_separate/083/element.info ...
outputParameter: writing output parameter values to rawfile.

Opening the PSF file ../psf/mc1_separate/083/outputParameter.info ...
designParamVals: writing netlist parameters to rawfile.

Opening the PSFASCII file ../psf/mc1_separate/083/designParamVals.info ...
primitives: writing primitives to rawfile.

Opening the PSFASCII file ../psf/mc1_separate/083/primitives.info.primitives ...
subckts: writing subcircuits to rawfile.

Opening the PSFASCII file ../psf/mc1_separate/083/subckts.info.subckts ...
    mc1: iteration = 83          (29.2 %), step = 1            (4.17 %)
84  33.33% 

*****************************************************************************************
* 
* INFO: AMS_processOption = C35B4C3
* 
* INFO: Valid Modules  PIP VG5 HIRES
* 
*****************************************************************************************


Notice from spectre during Monte Carlo analysis `mc1'.
    V8: `period' has the unusually large value of 100 s.


***********************************************
Transient Analysis `tran': time = (0 s -> 50 s)
***********************************************

Opening the PSF file ../psf/mc1_separate/084/tran.tran.tran ...

Warning from spectre during check, during IC analysis, during transient analysis `tran', during Monte Carlo analysis `mc1'.
    WARNING (CMI-2943): Parameter checks have been ignored because the valid value for parameter 'trise' could not be found in 'C1'.
    WARNING (CMI-2943): Parameter checks have been ignored because the valid value for parameter 'trise' could not be found in 'I0.R2.CM'.
    WARNING (CMI-2943): Parameter checks have been ignored because the valid value for parameter 'trise' could not be found in 'I0.R2.CS1'.
    WARNING (CMI-2943): Parameter checks have been ignored because the valid value for parameter 'trise' could not be found in 'I0.R2.CS0'.
    WARNING (CMI-2943): Parameter checks have been ignored because the valid value for parameter 'trise' could not be found in 'I0.C8<3>.C1'.
        Further occurrences of this warning will be suppressed.

Convergence achieved in 12 iterations.
DC simulation time: CPU = 2.297 ms, elapsed = 2.29812 ms.
Important parameter values:
    start = 0 s
    outputstart = 0 s
    stop = 50 s
    step = 50 ms
    maxstep = 500 ms
    ic = all
    useprevic = no
    skipdc = no
    reltol = 10e-06
    abstol(V) = 1 uV
    abstol(I) = 1 pA
    temp = 27 C
    tnom = 27 C
    tempeffects = all
    errpreset = conservative
    method = gear2only
    lteratio = 10
    relref = alllocal
    cmin = 0 F
    gmin = 1 pS
    rabsshort = 1 mOhm


Notice from spectre during transient analysis `tran', during Monte Carlo analysis `mc1'.
    Multithreading is disabled due to the size of the design being too small.


Output and IC/nodeset summary:
                 save   8       (current)
                 save   87      (voltage)

    tran: time = 1.268 s     (2.54 %), step = 86.84 ms     (174 m%)
    tran: time = 3.787 s     (7.57 %), step = 333.6 ms     (667 m%)
    tran: time = 6.484 s       (13 %), step = 500 ms          (1 %)
    tran: time = 8.984 s       (18 %), step = 500 ms          (1 %)
    tran: time = 11.48 s       (23 %), step = 500 ms          (1 %)
    tran: time = 13.98 s       (28 %), step = 500 ms          (1 %)
    tran: time = 16.48 s       (33 %), step = 500 ms          (1 %)
    tran: time = 18.98 s       (38 %), step = 500 ms          (1 %)
    tran: time = 21.48 s       (43 %), step = 500 ms          (1 %)
    tran: time = 23.98 s       (48 %), step = 500 ms          (1 %)
    tran: time = 26.48 s       (53 %), step = 500 ms          (1 %)
    tran: time = 28.98 s       (58 %), step = 500 ms          (1 %)
    tran: time = 31.48 s       (63 %), step = 500 ms          (1 %)
    tran: time = 33.98 s       (68 %), step = 500 ms          (1 %)
    tran: time = 36.48 s       (73 %), step = 500 ms          (1 %)
    tran: time = 38.98 s       (78 %), step = 500 ms          (1 %)
    tran: time = 41.48 s       (83 %), step = 500 ms          (1 %)
    tran: time = 43.98 s       (88 %), step = 500 ms          (1 %)
    tran: time = 46.48 s       (93 %), step = 500 ms          (1 %)
    tran: time = 48.98 s       (98 %), step = 500 ms          (1 %)
Number of accepted tran steps =             738

Maximum value achieved for any signal of each quantity: 
V: V(vout) = 3.3 V
I: I(V8:p) = 6.454 uA

~~~~~~~~~~~~~~~~~~~~~~~~~~~~~~~~~
Post-Transient Simulation Summary
~~~~~~~~~~~~~~~~~~~~~~~~~~~~~~~~~
   -   To further speed up simulation, consider
          add ++aps on command line
   -   Non-default settings that could significantly slow down simulation
          errpreset = conservative, default moderate
          reltol = 10e-06, default 100e-06 (conservative)
~~~~~~~~~~~~~~~~~~~~~~~~~~~~~~~~~


During simulation, the CPU load for active processors is :
         0 (11.8 %)      1 (76.1 %)      2 (35.2 %)      3 (28.7 %)
         4 (55.5 %)      5 (80.0 %)      6 (7.5 %)       7 (100.0 %)
         8 (14.4 %)      9 (46.9 %)     10 (36.6 %)     11 (7.0 %)
        12 (23.6 %)     13 (42.5 %)     14 (52.1 %)     15 (38.9 %)
        16 (32.1 %)     17 (50.0 %)     18 (59.0 %)     19 (37.6 %)
        20 (55.1 %)     21 (24.0 %)     22 (49.4 %)     23 (38.6 %)
        24 (41.6 %)     25 (82.4 %)     26 (20.8 %)     27 (36.8 %)
        28 (51.8 %)     29 (58.2 %)     30 (35.5 %)     31 (42.4 %)
        32 (61.7 %)     33 (89.7 %)     34 (6.1 %)      35 (32.0 %)
        36 (100.0 %)    37 (29.6 %)     38 (22.6 %)     39 (34.9 %)
        40 (100.0 %)    41 (20.2 %)     42 (37.6 %)     43 (41.1 %)
        44 (54.1 %)     45 (8.6 %)      46 (45.5 %)     47 (31.7 %)
        Total: 2087.2%
Initial condition solution time: CPU = 2.336 ms, elapsed = 2.33793 ms.
Intrinsic tran analysis time:    CPU = 396.506 ms, elapsed = 397.704 ms.
Total time required for tran analysis `tran': CPU = 401.363 ms, elapsed = 403.105 ms, util. = 99.6%.
Time accumulated: CPU = 4.71346 s, elapsed = 5.72732 s.
Peak resident memory used = 216 Mbytes.


Notice from spectre during transient analysis `tran', during Monte Carlo analysis `mc1'.
    34 warnings suppressed.

finalTimeOP: writing operating point information to rawfile.

Opening the PSF file ../psf/mc1_separate/084/finalTimeOP.info ...
modelParameter: writing model parameter values to rawfile.

Opening the PSF file ../psf/mc1_separate/084/modelParameter.info ...
element: writing instance parameter values to rawfile.

Opening the PSF file ../psf/mc1_separate/084/element.info ...
outputParameter: writing output parameter values to rawfile.

Opening the PSF file ../psf/mc1_separate/084/outputParameter.info ...
designParamVals: writing netlist parameters to rawfile.

Opening the PSFASCII file ../psf/mc1_separate/084/designParamVals.info ...
primitives: writing primitives to rawfile.

Opening the PSFASCII file ../psf/mc1_separate/084/primitives.info.primitives ...
subckts: writing subcircuits to rawfile.

Opening the PSFASCII file ../psf/mc1_separate/084/subckts.info.subckts ...
    mc1: iteration = 84          (33.3 %), step = 1            (4.17 %)
85  37.50% 

*****************************************************************************************
* 
* INFO: AMS_processOption = C35B4C3
* 
* INFO: Valid Modules  PIP VG5 HIRES
* 
*****************************************************************************************


Notice from spectre during Monte Carlo analysis `mc1'.
    V8: `period' has the unusually large value of 100 s.


***********************************************
Transient Analysis `tran': time = (0 s -> 50 s)
***********************************************

Opening the PSF file ../psf/mc1_separate/085/tran.tran.tran ...

Warning from spectre during check, during IC analysis, during transient analysis `tran', during Monte Carlo analysis `mc1'.
    WARNING (CMI-2943): Parameter checks have been ignored because the valid value for parameter 'trise' could not be found in 'C1'.
    WARNING (CMI-2943): Parameter checks have been ignored because the valid value for parameter 'trise' could not be found in 'I0.R2.CM'.
    WARNING (CMI-2943): Parameter checks have been ignored because the valid value for parameter 'trise' could not be found in 'I0.R2.CS1'.
    WARNING (CMI-2943): Parameter checks have been ignored because the valid value for parameter 'trise' could not be found in 'I0.R2.CS0'.
    WARNING (CMI-2943): Parameter checks have been ignored because the valid value for parameter 'trise' could not be found in 'I0.C8<3>.C1'.
        Further occurrences of this warning will be suppressed.

Convergence achieved in 12 iterations.
DC simulation time: CPU = 2.207 ms, elapsed = 2.20799 ms.
Important parameter values:
    start = 0 s
    outputstart = 0 s
    stop = 50 s
    step = 50 ms
    maxstep = 500 ms
    ic = all
    useprevic = no
    skipdc = no
    reltol = 10e-06
    abstol(V) = 1 uV
    abstol(I) = 1 pA
    temp = 27 C
    tnom = 27 C
    tempeffects = all
    errpreset = conservative
    method = gear2only
    lteratio = 10
    relref = alllocal
    cmin = 0 F
    gmin = 1 pS
    rabsshort = 1 mOhm


Notice from spectre during transient analysis `tran', during Monte Carlo analysis `mc1'.
    Multithreading is disabled due to the size of the design being too small.


Output and IC/nodeset summary:
                 save   8       (current)
                 save   87      (voltage)

    tran: time = 1.263 s     (2.53 %), step = 77.27 ms     (155 m%)
    tran: time = 3.829 s     (7.66 %), step = 215.3 ms     (431 m%)
    tran: time = 6.572 s     (13.1 %), step = 453.9 ms     (908 m%)
    tran: time = 9.058 s     (18.1 %), step = 500 ms          (1 %)
    tran: time = 11.56 s     (23.1 %), step = 500 ms          (1 %)
    tran: time = 14.06 s     (28.1 %), step = 500 ms          (1 %)
    tran: time = 16.56 s     (33.1 %), step = 500 ms          (1 %)
    tran: time = 19.06 s     (38.1 %), step = 500 ms          (1 %)
    tran: time = 21.56 s     (43.1 %), step = 500 ms          (1 %)
    tran: time = 24.06 s     (48.1 %), step = 500 ms          (1 %)
    tran: time = 26.56 s     (53.1 %), step = 500 ms          (1 %)
    tran: time = 29.06 s     (58.1 %), step = 500 ms          (1 %)
    tran: time = 31.56 s     (63.1 %), step = 500 ms          (1 %)
    tran: time = 34.06 s     (68.1 %), step = 500 ms          (1 %)
    tran: time = 36.56 s     (73.1 %), step = 500 ms          (1 %)
    tran: time = 39.06 s     (78.1 %), step = 500 ms          (1 %)
    tran: time = 41.56 s     (83.1 %), step = 500 ms          (1 %)
    tran: time = 44.06 s     (88.1 %), step = 500 ms          (1 %)
    tran: time = 46.56 s     (93.1 %), step = 500 ms          (1 %)
    tran: time = 49.06 s     (98.1 %), step = 500 ms          (1 %)
Number of accepted tran steps =             731

Maximum value achieved for any signal of each quantity: 
V: V(vout_filt) = 3.3 V
I: I(V8:p) = 6.372 uA

~~~~~~~~~~~~~~~~~~~~~~~~~~~~~~~~~
Post-Transient Simulation Summary
~~~~~~~~~~~~~~~~~~~~~~~~~~~~~~~~~
   -   To further speed up simulation, consider
          add ++aps on command line
   -   Non-default settings that could significantly slow down simulation
          errpreset = conservative, default moderate
          reltol = 10e-06, default 100e-06 (conservative)
~~~~~~~~~~~~~~~~~~~~~~~~~~~~~~~~~


During simulation, the CPU load for active processors is :
         0 (13.4 %)      1 (77.9 %)      2 (38.4 %)      3 (33.8 %)
         4 (52.4 %)      5 (77.1 %)      6 (7.1 %)       7 (100.0 %)
         8 (14.7 %)      9 (45.6 %)     10 (40.7 %)     11 (11.1 %)
        12 (24.1 %)     13 (46.8 %)     14 (48.7 %)     15 (36.8 %)
        16 (35.6 %)     17 (48.9 %)     18 (57.4 %)     19 (38.9 %)
        20 (53.5 %)     21 (23.0 %)     22 (52.0 %)     23 (42.7 %)
        24 (46.1 %)     25 (83.1 %)     26 (19.7 %)     27 (34.5 %)
        28 (53.2 %)     29 (58.4 %)     30 (40.4 %)     31 (46.5 %)
        32 (58.7 %)     33 (90.5 %)     34 (5.9 %)      35 (30.0 %)
        36 (100.0 %)    37 (28.5 %)     38 (23.1 %)     39 (33.8 %)
        40 (100.0 %)    41 (20.2 %)     42 (42.0 %)     43 (39.3 %)
        44 (56.0 %)     45 (9.0 %)      46 (43.1 %)     47 (31.1 %)
        Total: 2113.9%
Initial condition solution time: CPU = 2.245 ms, elapsed = 2.24686 ms.
Intrinsic tran analysis time:    CPU = 397.254 ms, elapsed = 399.202 ms.
Total time required for tran analysis `tran': CPU = 402.219 ms, elapsed = 404.859 ms, util. = 99.3%.
Time accumulated: CPU = 5.15567 s, elapsed = 6.18317 s.
Peak resident memory used = 216 Mbytes.


Notice from spectre during transient analysis `tran', during Monte Carlo analysis `mc1'.
    34 warnings suppressed.

finalTimeOP: writing operating point information to rawfile.

Opening the PSF file ../psf/mc1_separate/085/finalTimeOP.info ...
modelParameter: writing model parameter values to rawfile.

Opening the PSF file ../psf/mc1_separate/085/modelParameter.info ...
element: writing instance parameter values to rawfile.

Opening the PSF file ../psf/mc1_separate/085/element.info ...
outputParameter: writing output parameter values to rawfile.

Opening the PSF file ../psf/mc1_separate/085/outputParameter.info ...
designParamVals: writing netlist parameters to rawfile.

Opening the PSFASCII file ../psf/mc1_separate/085/designParamVals.info ...
primitives: writing primitives to rawfile.

Opening the PSFASCII file ../psf/mc1_separate/085/primitives.info.primitives ...
subckts: writing subcircuits to rawfile.

Opening the PSFASCII file ../psf/mc1_separate/085/subckts.info.subckts ...
    mc1: iteration = 85          (37.5 %), step = 1            (4.17 %)
86  41.67% 

*****************************************************************************************
* 
* INFO: AMS_processOption = C35B4C3
* 
* INFO: Valid Modules  PIP VG5 HIRES
* 
*****************************************************************************************


Notice from spectre during Monte Carlo analysis `mc1'.
    V8: `period' has the unusually large value of 100 s.


[...]


***********************************************
Transient Analysis `tran': time = (0 s -> 50 s)
***********************************************

Opening the PSF file ../psf/mc1_separate/098/tran.tran.tran ...

Warning from spectre during check, during IC analysis, during transient analysis `tran', during Monte Carlo analysis `mc1'.
    WARNING (CMI-2943): Parameter checks have been ignored because the valid value for parameter 'trise' could not be found in 'C1'.
    WARNING (CMI-2943): Parameter checks have been ignored because the valid value for parameter 'trise' could not be found in 'I0.R2.CM'.
    WARNING (CMI-2943): Parameter checks have been ignored because the valid value for parameter 'trise' could not be found in 'I0.R2.CS1'.
    WARNING (CMI-2943): Parameter checks have been ignored because the valid value for parameter 'trise' could not be found in 'I0.R2.CS0'.
    WARNING (CMI-2943): Parameter checks have been ignored because the valid value for parameter 'trise' could not be found in 'I0.C8<3>.C1'.
        Further occurrences of this warning will be suppressed.

Convergence achieved in 12 iterations.
DC simulation time: CPU = 2.373 ms, elapsed = 2.37298 ms.
Important parameter values:
    start = 0 s
    outputstart = 0 s
    stop = 50 s
    step = 50 ms
    maxstep = 500 ms
    ic = all
    useprevic = no
    skipdc = no
    reltol = 10e-06
    abstol(V) = 1 uV
    abstol(I) = 1 pA
    temp = 27 C
    tnom = 27 C
    tempeffects = all
    errpreset = conservative
    method = gear2only
    lteratio = 10
    relref = alllocal
    cmin = 0 F
    gmin = 1 pS
    rabsshort = 1 mOhm


Notice from spectre during transient analysis `tran', during Monte Carlo analysis `mc1'.
    Multithreading is disabled due to the size of the design being too small.


Output and IC/nodeset summary:
                 save   8       (current)
                 save   87      (voltage)

    tran: time = 1.255 s     (2.51 %), step = 115.8 ms     (232 m%)
    tran: time = 4.094 s     (8.19 %), step = 382.7 ms     (765 m%)
    tran: time = 6.469 s     (12.9 %), step = 500 ms          (1 %)
    tran: time = 8.969 s     (17.9 %), step = 500 ms          (1 %)
    tran: time = 11.47 s     (22.9 %), step = 500 ms          (1 %)
    tran: time = 13.97 s     (27.9 %), step = 500 ms          (1 %)
    tran: time = 16.47 s     (32.9 %), step = 500 ms          (1 %)
    tran: time = 18.97 s     (37.9 %), step = 500 ms          (1 %)
    tran: time = 21.47 s     (42.9 %), step = 500 ms          (1 %)
    tran: time = 23.97 s     (47.9 %), step = 500 ms          (1 %)
    tran: time = 26.47 s     (52.9 %), step = 500 ms          (1 %)
    tran: time = 28.97 s     (57.9 %), step = 500 ms          (1 %)
    tran: time = 31.47 s     (62.9 %), step = 500 ms          (1 %)
    tran: time = 33.97 s     (67.9 %), step = 500 ms          (1 %)
    tran: time = 36.47 s     (72.9 %), step = 500 ms          (1 %)
    tran: time = 38.97 s     (77.9 %), step = 500 ms          (1 %)
    tran: time = 41.47 s     (82.9 %), step = 500 ms          (1 %)
    tran: time = 43.97 s     (87.9 %), step = 500 ms          (1 %)
    tran: time = 46.47 s     (92.9 %), step = 500 ms          (1 %)
    tran: time = 48.97 s     (97.9 %), step = 500 ms          (1 %)
Number of accepted tran steps =             745

Maximum value achieved for any signal of each quantity: 
V: V(vout) = 3.3 V
I: I(V8:p) = 6.426 uA

~~~~~~~~~~~~~~~~~~~~~~~~~~~~~~~~~
Post-Transient Simulation Summary
~~~~~~~~~~~~~~~~~~~~~~~~~~~~~~~~~
   -   To further speed up simulation, consider
          add ++aps on command line
   -   Non-default settings that could significantly slow down simulation
          errpreset = conservative, default moderate
          reltol = 10e-06, default 100e-06 (conservative)
~~~~~~~~~~~~~~~~~~~~~~~~~~~~~~~~~


During simulation, the CPU load for active processors is :
         0 (16.5 %)      1 (88.5 %)      2 (37.8 %)      3 (34.6 %)
         4 (31.6 %)      5 (51.2 %)      6 (19.0 %)      7 (99.9 %)
         8 (29.7 %)      9 (43.2 %)     10 (48.9 %)     11 (13.4 %)
        12 (30.4 %)     13 (44.0 %)     14 (39.9 %)     15 (28.6 %)
        16 (50.3 %)     17 (43.6 %)     18 (60.3 %)     19 (45.5 %)
        20 (45.1 %)     21 (38.9 %)     22 (58.1 %)     23 (44.8 %)
        24 (36.2 %)     25 (68.8 %)     26 (34.2 %)     27 (38.5 %)
        28 (36.3 %)     29 (44.6 %)     30 (34.9 %)     31 (54.4 %)
        32 (37.1 %)     33 (95.0 %)     34 (34.5 %)     35 (60.3 %)
        36 (81.5 %)     37 (49.3 %)     38 (30.6 %)     39 (28.0 %)
        40 (99.9 %)     41 (20.4 %)     42 (38.7 %)     43 (41.4 %)
        44 (47.3 %)     45 (26.4 %)     46 (39.2 %)     47 (29.8 %)
        Total: 2151.0%
Initial condition solution time: CPU = 2.408 ms, elapsed = 2.41113 ms.
Intrinsic tran analysis time:    CPU = 405.906 ms, elapsed = 407.583 ms.
Total time required for tran analysis `tran': CPU = 410.96 ms, elapsed = 413.219 ms, util. = 99.5%.
Time accumulated: CPU = 10.9613 s, elapsed = 12.1543 s.
Peak resident memory used = 216 Mbytes.


Notice from spectre during transient analysis `tran', during Monte Carlo analysis `mc1'.
    34 warnings suppressed.

finalTimeOP: writing operating point information to rawfile.

Opening the PSF file ../psf/mc1_separate/098/finalTimeOP.info ...
modelParameter: writing model parameter values to rawfile.

Opening the PSF file ../psf/mc1_separate/098/modelParameter.info ...
element: writing instance parameter values to rawfile.

Opening the PSF file ../psf/mc1_separate/098/element.info ...
outputParameter: writing output parameter values to rawfile.

Opening the PSF file ../psf/mc1_separate/098/outputParameter.info ...
designParamVals: writing netlist parameters to rawfile.

Opening the PSFASCII file ../psf/mc1_separate/098/designParamVals.info ...
primitives: writing primitives to rawfile.

Opening the PSFASCII file ../psf/mc1_separate/098/primitives.info.primitives ...
subckts: writing subcircuits to rawfile.

Opening the PSFASCII file ../psf/mc1_separate/098/subckts.info.subckts ...
    mc1: iteration = 98          (91.7 %), step = 1            (4.17 %)
99  95.83% 

*****************************************************************************************
* 
* INFO: AMS_processOption = C35B4C3
* 
* INFO: Valid Modules  PIP VG5 HIRES
* 
*****************************************************************************************


Notice from spectre during Monte Carlo analysis `mc1'.
    V8: `period' has the unusually large value of 100 s.


***********************************************
Transient Analysis `tran': time = (0 s -> 50 s)
***********************************************

Opening the PSF file ../psf/mc1_separate/099/tran.tran.tran ...

Warning from spectre during check, during IC analysis, during transient analysis `tran', during Monte Carlo analysis `mc1'.
    WARNING (CMI-2943): Parameter checks have been ignored because the valid value for parameter 'trise' could not be found in 'C1'.
    WARNING (CMI-2943): Parameter checks have been ignored because the valid value for parameter 'trise' could not be found in 'I0.R2.CM'.
    WARNING (CMI-2943): Parameter checks have been ignored because the valid value for parameter 'trise' could not be found in 'I0.R2.CS1'.
    WARNING (CMI-2943): Parameter checks have been ignored because the valid value for parameter 'trise' could not be found in 'I0.R2.CS0'.
    WARNING (CMI-2943): Parameter checks have been ignored because the valid value for parameter 'trise' could not be found in 'I0.C8<3>.C1'.
        Further occurrences of this warning will be suppressed.

Convergence achieved in 12 iterations.
DC simulation time: CPU = 2.21 ms, elapsed = 2.21109 ms.
Important parameter values:
    start = 0 s
    outputstart = 0 s
    stop = 50 s
    step = 50 ms
    maxstep = 500 ms
    ic = all
    useprevic = no
    skipdc = no
    reltol = 10e-06
    abstol(V) = 1 uV
    abstol(I) = 1 pA
    temp = 27 C
    tnom = 27 C
    tempeffects = all
    errpreset = conservative
    method = gear2only
    lteratio = 10
    relref = alllocal
    cmin = 0 F
    gmin = 1 pS
    rabsshort = 1 mOhm


Notice from spectre during transient analysis `tran', during Monte Carlo analysis `mc1'.
    Multithreading is disabled due to the size of the design being too small.


Output and IC/nodeset summary:
                 save   8       (current)
                 save   87      (voltage)

    tran: time = 1.286 s     (2.57 %), step = 100.2 ms     (200 m%)
    tran: time = 3.786 s     (7.57 %), step = 341.1 ms     (682 m%)
    tran: time = 6.495 s       (13 %), step = 500 ms          (1 %)
    tran: time = 8.995 s       (18 %), step = 500 ms          (1 %)
    tran: time = 11.5 s        (23 %), step = 500 ms          (1 %)
    tran: time = 14 s          (28 %), step = 500 ms          (1 %)
    tran: time = 16.5 s        (33 %), step = 500 ms          (1 %)
    tran: time = 19 s          (38 %), step = 500 ms          (1 %)
    tran: time = 21.5 s        (43 %), step = 500 ms          (1 %)
    tran: time = 24 s          (48 %), step = 500 ms          (1 %)
    tran: time = 26.5 s        (53 %), step = 500 ms          (1 %)
    tran: time = 29 s          (58 %), step = 500 ms          (1 %)
    tran: time = 31.5 s        (63 %), step = 500 ms          (1 %)
    tran: time = 34 s          (68 %), step = 500 ms          (1 %)
    tran: time = 36.5 s        (73 %), step = 500 ms          (1 %)
    tran: time = 39 s          (78 %), step = 500 ms          (1 %)
    tran: time = 41.5 s        (83 %), step = 500 ms          (1 %)
    tran: time = 44 s          (88 %), step = 500 ms          (1 %)
    tran: time = 46.5 s        (93 %), step = 500 ms          (1 %)
    tran: time = 49 s          (98 %), step = 500 ms          (1 %)
Number of accepted tran steps =             736

Maximum value achieved for any signal of each quantity: 
V: V(S<0>) = 3.3 V
I: I(V8:p) = 6.384 uA

~~~~~~~~~~~~~~~~~~~~~~~~~~~~~~~~~
Post-Transient Simulation Summary
~~~~~~~~~~~~~~~~~~~~~~~~~~~~~~~~~
   -   To further speed up simulation, consider
          add ++aps on command line
   -   Non-default settings that could significantly slow down simulation
          errpreset = conservative, default moderate
          reltol = 10e-06, default 100e-06 (conservative)
~~~~~~~~~~~~~~~~~~~~~~~~~~~~~~~~~


During simulation, the CPU load for active processors is :
         0 (16.3 %)      1 (88.6 %)      2 (36.8 %)      3 (37.0 %)
         4 (30.7 %)      5 (49.6 %)      6 (18.9 %)      7 (99.9 %)
         8 (28.8 %)      9 (41.8 %)     10 (50.7 %)     11 (16.6 %)
        12 (30.1 %)     13 (42.6 %)     14 (38.6 %)     15 (28.3 %)
        16 (48.7 %)     17 (44.4 %)     18 (61.3 %)     19 (44.4 %)
        20 (44.2 %)     21 (40.9 %)     22 (59.5 %)     23 (46.9 %)
        24 (38.5 %)     25 (66.7 %)     26 (35.8 %)     27 (37.5 %)
        28 (37.6 %)     29 (46.6 %)     30 (34.2 %)     31 (52.5 %)
        32 (35.8 %)     33 (91.8 %)     34 (33.4 %)     35 (61.7 %)
        36 (82.0 %)     37 (51.2 %)     38 (31.2 %)     39 (27.4 %)
        40 (99.8 %)     41 (20.4 %)     42 (37.5 %)     43 (41.3 %)
        44 (45.8 %)     45 (29.2 %)     46 (38.3 %)     47 (29.1 %)
        Total: 2151.2%
Initial condition solution time: CPU = 2.253 ms, elapsed = 2.25496 ms.
Intrinsic tran analysis time:    CPU = 404.759 ms, elapsed = 406.121 ms.
Total time required for tran analysis `tran': CPU = 409.19 ms, elapsed = 411.222 ms, util. = 99.5%.
Time accumulated: CPU = 11.4092 s, elapsed = 12.6154 s.
Peak resident memory used = 216 Mbytes.


Notice from spectre during transient analysis `tran', during Monte Carlo analysis `mc1'.
    34 warnings suppressed.

finalTimeOP: writing operating point information to rawfile.

Opening the PSF file ../psf/mc1_separate/099/finalTimeOP.info ...
modelParameter: writing model parameter values to rawfile.

Opening the PSF file ../psf/mc1_separate/099/modelParameter.info ...
element: writing instance parameter values to rawfile.

Opening the PSF file ../psf/mc1_separate/099/element.info ...
outputParameter: writing output parameter values to rawfile.

Opening the PSF file ../psf/mc1_separate/099/outputParameter.info ...
designParamVals: writing netlist parameters to rawfile.

Opening the PSFASCII file ../psf/mc1_separate/099/designParamVals.info ...
primitives: writing primitives to rawfile.

Opening the PSFASCII file ../psf/mc1_separate/099/primitives.info.primitives ...
subckts: writing subcircuits to rawfile.

Opening the PSFASCII file ../psf/mc1_separate/099/subckts.info.subckts ...
    mc1: iteration = 99          (95.8 %), step = 1            (4.17 %)
100 100.00% 

*****************************************************************************************
* 
* INFO: AMS_processOption = C35B4C3
* 
* INFO: Valid Modules  PIP VG5 HIRES
* 
*****************************************************************************************


Notice from spectre during Monte Carlo analysis `mc1'.
    V8: `period' has the unusually large value of 100 s.


***********************************************
Transient Analysis `tran': time = (0 s -> 50 s)
***********************************************

Opening the PSF file ../psf/mc1_separate/100/tran.tran.tran ...

Warning from spectre during check, during IC analysis, during transient analysis `tran', during Monte Carlo analysis `mc1'.
    WARNING (CMI-2943): Parameter checks have been ignored because the valid value for parameter 'trise' could not be found in 'C1'.
    WARNING (CMI-2943): Parameter checks have been ignored because the valid value for parameter 'trise' could not be found in 'I0.R2.CM'.
    WARNING (CMI-2943): Parameter checks have been ignored because the valid value for parameter 'trise' could not be found in 'I0.R2.CS1'.
    WARNING (CMI-2943): Parameter checks have been ignored because the valid value for parameter 'trise' could not be found in 'I0.R2.CS0'.
    WARNING (CMI-2943): Parameter checks have been ignored because the valid value for parameter 'trise' could not be found in 'I0.C8<3>.C1'.
        Further occurrences of this warning will be suppressed.

Convergence achieved in 12 iterations.
DC simulation time: CPU = 2.222 ms, elapsed = 2.22301 ms.
Important parameter values:
    start = 0 s
    outputstart = 0 s
    stop = 50 s
    step = 50 ms
    maxstep = 500 ms
    ic = all
    useprevic = no
    skipdc = no
    reltol = 10e-06
    abstol(V) = 1 uV
    abstol(I) = 1 pA
    temp = 27 C
    tnom = 27 C
    tempeffects = all
    errpreset = conservative
    method = gear2only
    lteratio = 10
    relref = alllocal
    cmin = 0 F
    gmin = 1 pS
    rabsshort = 1 mOhm


Notice from spectre during transient analysis `tran', during Monte Carlo analysis `mc1'.
    Multithreading is disabled due to the size of the design being too small.


Output and IC/nodeset summary:
                 save   8       (current)
                 save   87      (voltage)

    tran: time = 1.29 s      (2.58 %), step = 61.93 ms     (124 m%)
    tran: time = 3.978 s     (7.96 %), step = 326.4 ms     (653 m%)
    tran: time = 6.634 s     (13.3 %), step = 500 ms          (1 %)
    tran: time = 9.134 s     (18.3 %), step = 500 ms          (1 %)
    tran: time = 11.63 s     (23.3 %), step = 500 ms          (1 %)
    tran: time = 14.13 s     (28.3 %), step = 500 ms          (1 %)
    tran: time = 16.63 s     (33.3 %), step = 500 ms          (1 %)
    tran: time = 19.13 s     (38.3 %), step = 500 ms          (1 %)
    tran: time = 21.63 s     (43.3 %), step = 500 ms          (1 %)
    tran: time = 24.13 s     (48.3 %), step = 500 ms          (1 %)
    tran: time = 26.63 s     (53.3 %), step = 500 ms          (1 %)
    tran: time = 29.13 s     (58.3 %), step = 500 ms          (1 %)
    tran: time = 31.63 s     (63.3 %), step = 500 ms          (1 %)
    tran: time = 34.13 s     (68.3 %), step = 500 ms          (1 %)
    tran: time = 36.63 s     (73.3 %), step = 500 ms          (1 %)
    tran: time = 39.13 s     (78.3 %), step = 500 ms          (1 %)
    tran: time = 41.63 s     (83.3 %), step = 500 ms          (1 %)
    tran: time = 44.13 s     (88.3 %), step = 500 ms          (1 %)
    tran: time = 46.63 s     (93.3 %), step = 500 ms          (1 %)
    tran: time = 49.13 s     (98.3 %), step = 500 ms          (1 %)
Number of accepted tran steps =             746

Maximum value achieved for any signal of each quantity: 
V: V(vout) = 3.3 V
I: I(V8:p) = 6.366 uA

~~~~~~~~~~~~~~~~~~~~~~~~~~~~~~~~~
Post-Transient Simulation Summary
~~~~~~~~~~~~~~~~~~~~~~~~~~~~~~~~~
   -   To further speed up simulation, consider
          add ++aps on command line
   -   Non-default settings that could significantly slow down simulation
          errpreset = conservative, default moderate
          reltol = 10e-06, default 100e-06 (conservative)
~~~~~~~~~~~~~~~~~~~~~~~~~~~~~~~~~


During simulation, the CPU load for active processors is :
         0 (15.9 %)      1 (88.0 %)      2 (36.1 %)      3 (36.9 %)
         4 (29.9 %)      5 (49.0 %)      6 (21.3 %)      7 (99.9 %)
         8 (28.1 %)      9 (40.6 %)     10 (52.3 %)     11 (18.4 %)
        12 (29.8 %)     13 (41.3 %)     14 (37.3 %)     15 (30.3 %)
        16 (47.8 %)     17 (42.9 %)     18 (59.3 %)     19 (43.0 %)
        20 (46.3 %)     21 (43.0 %)     22 (60.5 %)     23 (48.7 %)
        24 (38.3 %)     25 (64.4 %)     26 (34.7 %)     27 (36.9 %)
        28 (40.0 %)     29 (48.4 %)     30 (33.6 %)     31 (50.8 %)
        32 (36.6 %)     33 (88.7 %)     34 (32.6 %)     35 (63.0 %)
        36 (79.5 %)     37 (53.0 %)     38 (32.2 %)     39 (29.9 %)
        40 (96.4 %)     41 (19.9 %)     42 (36.8 %)     43 (42.7 %)
        44 (44.3 %)     45 (28.3 %)     46 (38.1 %)     47 (28.6 %)
        Total: 2144.1%
Initial condition solution time: CPU = 2.257 ms, elapsed = 2.25806 ms.
Intrinsic tran analysis time:    CPU = 407.285 ms, elapsed = 408.592 ms.
Total time required for tran analysis `tran': CPU = 411.794 ms, elapsed = 413.773 ms, util. = 99.5%.
Time accumulated: CPU = 11.8634 s, elapsed = 13.082 s.
Peak resident memory used = 216 Mbytes.


Notice from spectre during transient analysis `tran', during Monte Carlo analysis `mc1'.
    34 warnings suppressed.

finalTimeOP: writing operating point information to rawfile.

Opening the PSF file ../psf/mc1_separate/100/finalTimeOP.info ...
modelParameter: writing model parameter values to rawfile.

Opening the PSF file ../psf/mc1_separate/100/modelParameter.info ...
element: writing instance parameter values to rawfile.

Opening the PSF file ../psf/mc1_separate/100/element.info ...
outputParameter: writing output parameter values to rawfile.

Opening the PSF file ../psf/mc1_separate/100/outputParameter.info ...
designParamVals: writing netlist parameters to rawfile.

Opening the PSFASCII file ../psf/mc1_separate/100/designParamVals.info ...
primitives: writing primitives to rawfile.

Opening the PSFASCII file ../psf/mc1_separate/100/primitives.info.primitives ...
subckts: writing subcircuits to rawfile.

Opening the PSFASCII file ../psf/mc1_separate/100/subckts.info.subckts ...
    mc1: iteration = 100          (100 %), step = 1            (4.17 %)
Total time required for montecarlo analysis `mc1': CPU = 11.2922 s, elapsed = 11.623 s, util. = 97.2%.
Time accumulated: CPU = 11.8886 s, elapsed = 13.1197 s.
Peak resident memory used = 216 Mbytes.

Licensing Information:
Lic Summary:
[09:36:48.292523] Cdslmd servers:3000@lic08.ug.kth.se:29000@lic06.ug.kth.se
[09:36:48.816850] Feature usage summary:
[09:36:48.816851] Virtuoso_Multi_mode_Simulation


Aggregate audit (9:36:48 AM, Thur Apr 16, 2026):
Time used: CPU = 11.9 s, elapsed = 13.1 s, util. = 90.6%.
Time spent in licensing: elapsed = 46.7 ms.
Peak memory used = 216 Mbytes.
Simulation started at: 9:36:35 AM, Thur Apr 16, 2026, ended at: 9:36:48 AM, Thur Apr 16, 2026, with elapsed time (wall clock): 13.1 s.
spectre completes with 0 errors, 142 warnings, and 83 notices.
