
Spectre (R) Circuit Simulator
Version 24.1.0.288.isr5 64bit -- 3 Apr 2025
Copyright (C) 1989-2025 Cadence Design Systems, Inc. All rights reserved worldwide. Cadence and Spectre are registered trademarks of Cadence Design Systems, Inc. All others are the property of their respective holders.

Includes RSA BSAFE(R) Cryptographic or Security Protocol Software from RSA Security, Inc.

User: davidevi   Host: il2244vt26_davidevi   HostID: 11AC2C00   PID: 1073108
Memory  available: 3.0276 TB  physical: 3.2467 TB
Linux   : Rocky Linux release 8.10 (Green Obsidian)
CPU Type: Intel(R) Xeon(R) CPU E7-8857 v2 @ 3.00GHz
        Socket: Processors [Frequency]
        0:       0 [3000.0],  1 [1200.0],  2 [2800.0],  3 [1200.0],  4 [3600.0]
                 5 [2600.0],  6 [3600.0],  7 [2500.0],  8 [2999.9],  9 [2500.0]
                10 [2600.0], 11 [1200.0]
        1:      12 [3600.0], 13 [2600.0], 14 [2500.0], 15 [1200.0], 16 [3402.4]
                17 [1200.0], 18 [3600.0], 19 [1200.0], 20 [3399.9], 21 [3600.0]
                22 [1200.0], 23 [1200.0]
        2:      24 [2999.9], 25 [2999.9], 26 [1200.0], 27 [1200.0], 28 [2999.9]
                29 [3400.0], 30 [3000.0], 31 [3600.0], 32 [2500.0], 33 [1200.0]
                34 [1200.0], 35 [2500.0]
        3:      36 [3600.0], 37 [2999.9], 38 [2999.9], 39 [2600.0], 40 [1200.0]
                41 [2999.9], 42 [2700.0], 43 [1200.0], 44 [1400.0], 45 [2800.0]
                46 [3600.0], 47 [2500.0]
        
System load averages (1min, 5min, 15min) : 25.8 %, 25.1 %, 24.3 %
HPC is enabled


Simulating `input.scs' on il2244vt26_davidevi at 9:47:28 AM, Thur Apr 16, 2026 (process id: 1073108).
Current working directory: /home/davidevi/Desktop/myproject/Sim/VGA/VGA_1_wakeup_tb/adexl/results/data/MonteCarlo.3/76/wakeup_MC/groupRunDataDir/netlist
Command line:
    /opt/tools/cadence/installs/SPECTRE241/tools/bin/spectre -64  \
        input.scs +escchars +log ../psf/spectre.out -format psfbin  \
        +rtsf -raw ../psf +aps +mt +lqtimeout 900 -maxw 5 -maxn 5  \
        +param /opt/pdk/ams/410/spectre/ams_range.lmts -env ade  \
        -ahdllibdir  \
        /home/davidevi/Desktop/myproject/Sim/VGA/VGA_1_wakeup_tb/adexl/results/data/MonteCarlo.3/sharedData/Job494/ahdl/input.ahdlSimDB  \
        +logstatus  \
        +adespetkn=0001089D13A302B663E41FB550AF0DF415A679A322D5069144BF588C12F604E07EF416DC01A319B562BB63D305F143B845A37BC12A8C16E470DC0DF070F04F9271DA79D15D9175FF34986BDD0AF002BA50FD7FD707E002A700AC1C8719F847E50EAA79D12EF874D3349879D118F874D334981031A8D6C4FD5D7800003689

Simulation Id: 7kPCFTDDb7SI1cEB
Licensing Information:
[09:47:28.121842] Configured Lic search path (24.01-s002): 3000@lic08.ug.kth.se:29000@lic06.ug.kth.se

Licensing Information:
[09:47:28.214104] Periodic Lic check successful

Loading /opt/tools/cadence/installs/SPECTRE241/tools.lnx86/cmi/lib/64bit/5.0/libinfineon_sh.so ...
Loading /opt/tools/cadence/installs/SPECTRE241/tools.lnx86/cmi/lib/64bit/5.0/libphilips_I_sh.so ...
Loading /opt/tools/cadence/installs/SPECTRE241/tools.lnx86/cmi/lib/64bit/5.0/libphilips_sh.so ...
Loading /opt/tools/cadence/installs/SPECTRE241/tools.lnx86/cmi/lib/64bit/5.0/libsparam_sh.so ...
Loading /opt/tools/cadence/installs/SPECTRE241/tools.lnx86/cmi/lib/64bit/5.0/libstmodels_sh.so ...

Warning from spectre.
    WARNING (SPECTRE-691): This CPU processor does not support x86 advanced vector extensions instructions. This may affect math operations and slow down the simulation.

Reading file:  /home/davidevi/Desktop/myproject/Sim/VGA/VGA_1_wakeup_tb/adexl/results/data/MonteCarlo.3/76/wakeup_MC/groupRunDataDir/netlist/input.scs
Reading file:  /opt/pdk/ams/410/spectre/ams_range.lmts

Warning from spectre during read of parameter soft limits file `/opt/pdk/ams/410/spectre/ams_range.lmts', during circuit read-in.
    WARNING (SPECTRE-8360): line 1511: `ac' is an undefined primitive device.
    WARNING (SPECTRE-8360): line 1512: `ac' is an undefined primitive device.
    WARNING (SPECTRE-8360): line 1513: `ac' is an undefined primitive device.
    WARNING (SPECTRE-8360): line 1514: `ac' is an undefined primitive device.
    WARNING (SPECTRE-8360): line 1515: `ac' is an undefined primitive device.
        Further occurrences of this warning will be suppressed.

Reading file:  /opt/tools/cadence/installs/SPECTRE241/tools.lnx86/spectre/etc/configs/spectre.cfg
Reading file:  /opt/pdk/ams/410/spectre/c35/soac/soac.scs
Reading file:  /opt/pdk/ams/410/spectre/c35/soac/processOption.scs
Reading file:  /opt/pdk/ams/410/spectre/c35/soac/process.scs
Reading file:  /opt/pdk/ams/410/spectre/c35/soac/soac.va

Warning from spectre during AHDL read-in.
    WARNING (VACOMP-2435): The environment variable CDS_AHDLCMI_ENABLE is no longer supported. Therefore, the simulator will use the default compiled C code flow.

Reading link:  /opt/tools/cadence/installs/SPECTRE241/tools.lnx86/spectre/etc/ahdl/constants.h
Reading file:  /opt/tools/cadence/installs/SPECTRE241/tools.lnx86/spectre/etc/ahdl/constants.vams
Reading link:  /opt/tools/cadence/installs/SPECTRE241/tools.lnx86/spectre/etc/ahdl/discipline.h
Reading file:  /opt/tools/cadence/installs/SPECTRE241/tools.lnx86/spectre/etc/ahdl/disciplines.vams
Reading file:  /opt/pdk/ams/410/spectre/c35/processOption/C35B4C3.scs
Reading file:  /opt/pdk/ams/410/spectre/c35/soac/cmos53.scs
Reading file:  /opt/pdk/ams/410/spectre/c35/soac/res.scs
Reading file:  /opt/pdk/ams/410/spectre/c35/soac/cap.scs
Reading file:  /opt/pdk/ams/410/spectre/c35/soac/bip.scs
Reading file:  /opt/pdk/ams/410/spectre/c35/soac/ind.scs
Reading file:  /opt/pdk/ams/410/spectre/c35/soac/esddiode.scs
Time for NDB Parsing: CPU = 180.618 ms, elapsed = 350.562 ms.
Time accumulated: CPU = 373.616 ms, elapsed = 350.565 ms.
Peak resident memory used = 175 Mbytes.

Existing shared object for module modn_ahdl is up to date.
Installed compiled interface for modn_ahdl.
Existing shared object for module modp_ahdl is up to date.
Installed compiled interface for modp_ahdl.
Existing shared object for module cpoly_ahdl is up to date.
Installed compiled interface for cpoly_ahdl.
Existing shared object for module rpolyh_ahdl is up to date.
Installed compiled interface for rpolyh_ahdl.
Existing shared object for module bsource_fcab9d is up to date.
Installed compiled interface for bsource_fcab9d.
Time for Elaboration: CPU = 54.474 ms, elapsed = 55.7759 ms.
Time accumulated: CPU = 428.217 ms, elapsed = 406.467 ms.
Peak resident memory used = 189 Mbytes.


Notice from spectre during hierarchy flattening.
    The value 'psf' specified for the 'checklimitdest' option will no longer be supported in future releases. Use 'spectre -h' to see other recommended values for the 'checklimitdest' option.


*****************************************************************************************
* 
* INFO: AMS_processOption = C35B4C3
* 
* INFO: Valid Modules  PIP VG5 HIRES
* 
*****************************************************************************************


Notice from spectre during hierarchy flattening.
    V8: `period' has the unusually large value of 100 s.


Time for EDB Visiting: CPU = 7.71 ms, elapsed = 7.70998 ms.
Time accumulated: CPU = 436.052 ms, elapsed = 414.302 ms.
Peak resident memory used = 192 Mbytes.

Loading /opt/tools/cadence/installs/SPECTRE241/tools.lnx86/mdl/lib/64bit/libSpectreEH_sh.so ...

Warning from spectre during initial setup.
    WARNING (SPECTRE-16460): SOAC_cvarm_vspsub:Specified subcircuit master `cvarm' was not found.
    WARNING (SPECTRE-16462): SOAC_cvarm_vspsub:Error in specification of subcircuit master. Assert is ignored.
    WARNING (SPECTRE-16460): SOAC_cvarm_vbs:Specified subcircuit master `cvarm' was not found.
    WARNING (SPECTRE-16462): SOAC_cvarm_vbs:Error in specification of subcircuit master. Assert is ignored.
    WARNING (SPECTRE-16460): SOAC_cvarm_vgb:Specified subcircuit master `cvarm' was not found.
    WARNING (SPECTRE-16462): SOAC_cvarm_vgb:Error in specification of subcircuit master. Assert is ignored.
    WARNING (SPECTRE-16460): SOAC_cvart_vspsub:Specified subcircuit master `cvart' was not found.
    WARNING (SPECTRE-16462): SOAC_cvart_vspsub:Error in specification of subcircuit master. Assert is ignored.
    WARNING (SPECTRE-16460): SOAC_cvart_vbs:Specified subcircuit master `cvart' was not found.
        Further occurrences of this warning will be suppressed.
    WARNING (SPECTRE-16462): SOAC_cvart_vbs:Error in specification of subcircuit master. Assert is ignored.
        Further occurrences of this warning will be suppressed.
Notice from spectre during topology check.
    Only one connection to the following 52 nodes:
        I0.MN6.psub!
        I0.MN5.psub!
        I0.MN4.psub!
        I0.MN3.psub!
        I0.MN2.psub!
        Further occurrences of this notice will be suppressed.
Notice from spectre during initial setup.
    Multithreading is disabled due to the size of the design being too small.


Netlist title:
        // Point Netlist Generated on: Apr 16 09:47:27 2026


Global user options:
         psfversion = 1.4.0
            vabstol = 1e-06
            iabstol = 1e-12
               temp = 27
           homotopy = 5
              limit = delta
         compatible = spice2
               gmin = 1e-12
             rforce = 1
           maxnotes = 5
           maxwarns = 5
             digits = 5
               cols = 80
             pivrel = 0.001
           sensfile = ../psf/sens.output
     checklimitdest = psf
     enable_pre_ver = yes
      ignorezerovar = yes
               save = allpub
             reltol = 0.0001
               tnom = 27
             scalem = 1
              scale = 1

Scoped user options:

Circuit inventory:
              nodes 84
            bsim3v3 33    
     bsource_fcab9d 2     
          capacitor 38    
         cpoly_ahdl 17    
            isource 1     
          modn_ahdl 19    
          modp_ahdl 14    
           resistor 1     
        rpolyh_ahdl 2     
            vsource 8     

Analysis and control statement inventory:
               info 7     
         montecarlo 1     
               tran 1     

Output statements:
             .probe 0     
           .measure 0     
               save 0     

Design checks inventory:
          paramtest 53    
             assert 175   


Notice from spectre during initial setup.
    APS enabled.
    1 notice suppressed.
    72 warnings suppressed.

Time for parsing: CPU = 16.273 ms, elapsed = 572.287 ms.
Time accumulated: CPU = 452.413 ms, elapsed = 986.677 ms.
Peak resident memory used = 198 Mbytes.

~~~~~~~~~~~~~~~~~~~~~~
Pre-Simulation Summary
~~~~~~~~~~~~~~~~~~~~~~
   -   (APS) Multi-threading. The recommended number of threads is 1, consider adding +mt=1 on command line.
~~~~~~~~~~~~~~~~~~~~~~

***************************************************
Monte Carlo Analysis `mc1': iteration = (76 -> 100)
***************************************************
Important parameter values:
    seed = 12345
    sampling = lds
    variations = all
    firstrun = 76
    numruns = 25
    nullmfactorcorrelation = no
    donominal = no
    method = standard
Opening iteration number and data-directory mapping file:  /home/davidevi/Desktop/myproject/Sim/VGA/VGA_1_wakeup_tb/adexl/results/data/MonteCarlo.3/76/wakeup_MC/groupRunDataDir/netlist/../psf/mc1.mapping

Statistical parameters:
    Defined process parameters: 629
    Defined mismatch parameters (subckt based): 86
    Non-referenced mismatch parameters: 80
    Number of random variables: 714
    Gaussian truncation for process parameters: 4.00 sigma
    Gaussian truncation for mismatch parameters: 4.00 sigma


**** Skipping runs 1 to 75 for `mc1'


Opening the PSF file ../psf/mc1_tran.montecarlo ...

Opening the PSF file ../psf/mc1_finalTimeOP.montecarlo ...

Opening the PSF file ../psf/mc1_modelParameter.montecarlo ...

Opening the PSF file ../psf/mc1_element.montecarlo ...

Opening the PSF file ../psf/mc1_outputParameter.montecarlo ...

Opening the PSF file ../psf/mc1_designParamVals.montecarlo ...

Opening the PSF file ../psf/mc1_primitives.montecarlo ...

Opening the PSF file ../psf/mc1_subckts.montecarlo ...

**** Performing monte carlo loop for `mc1'

76   0.00% 

*****************************************************************************************
* 
* INFO: AMS_processOption = C35B4C3
* 
* INFO: Valid Modules  PIP VG5 HIRES
* 
*****************************************************************************************


Notice from spectre at iteration = 76 during Monte Carlo analysis `mc1'.
    V8: `period' has the unusually large value of 100 s.
Notice from spectre at iteration = 76 during transient analysis `tran', during Monte Carlo analysis `mc1'.
    No checklimit analysis defined for asserts. A default checklimit analysis 'SpectreChecklimitAnal' has been created with all asserts enabled.


***********************************************
Transient Analysis `tran': time = (0 s -> 50 s)
***********************************************

Opening the PSF file ../psf/mc1_separate/076/tran.tran.tran ...

Warning from spectre at iteration = 76 during check, during IC analysis, during transient analysis `tran', during Monte Carlo analysis `mc1'.
    WARNING (CMI-2943): Parameter checks have been ignored because the valid value for parameter 'trise' could not be found in 'C1'.
    WARNING (CMI-2943): Parameter checks have been ignored because the valid value for parameter 'trise' could not be found in 'I0.R2.CM'.
    WARNING (CMI-2943): Parameter checks have been ignored because the valid value for parameter 'trise' could not be found in 'I0.R2.CS1'.
    WARNING (CMI-2943): Parameter checks have been ignored because the valid value for parameter 'trise' could not be found in 'I0.R2.CS0'.
    WARNING (CMI-2943): Parameter checks have been ignored because the valid value for parameter 'trise' could not be found in 'I0.C8<3>.C1'.
        Further occurrences of this warning will be suppressed.

Convergence achieved in 12 iterations.
DC simulation time: CPU = 2.553 ms, elapsed = 2.61402 ms.
Important parameter values:
    start = 0 s
    outputstart = 0 s
    stop = 50 s
    step = 50 ms
    maxstep = 500 ms
    ic = all
    useprevic = no
    skipdc = no
    reltol = 10e-06
    abstol(V) = 1 uV
    abstol(I) = 1 pA
    temp = 27 C
    tnom = 27 C
    tempeffects = all
    errpreset = conservative
    method = gear2only
    lteratio = 10
    relref = alllocal
    cmin = 0 F
    gmin = 1 pS
    rabsshort = 1 mOhm


Notice from spectre at iteration = 76 during transient analysis `tran', during Monte Carlo analysis `mc1'.
    Multithreading is disabled due to the size of the design being too small.


Output and IC/nodeset summary:
                 save   8       (current)
                 save   83      (voltage)

    tran: time = 1.363 s     (2.73 %), step = 154.6 ms     (309 m%)
    tran: time = 3.805 s     (7.61 %), step = 373 ms       (746 m%)
    tran: time = 6.544 s     (13.1 %), step = 500 ms          (1 %)
    tran: time = 9.044 s     (18.1 %), step = 500 ms          (1 %)
    tran: time = 11.54 s     (23.1 %), step = 500 ms          (1 %)
    tran: time = 14.04 s     (28.1 %), step = 500 ms          (1 %)
    tran: time = 16.54 s     (33.1 %), step = 500 ms          (1 %)
    tran: time = 19.04 s     (38.1 %), step = 500 ms          (1 %)
    tran: time = 21.54 s     (43.1 %), step = 500 ms          (1 %)
    tran: time = 24.04 s     (48.1 %), step = 500 ms          (1 %)
    tran: time = 26.54 s     (53.1 %), step = 500 ms          (1 %)
    tran: time = 29.04 s     (58.1 %), step = 500 ms          (1 %)
    tran: time = 31.54 s     (63.1 %), step = 500 ms          (1 %)
    tran: time = 34.04 s     (68.1 %), step = 500 ms          (1 %)
    tran: time = 36.54 s     (73.1 %), step = 500 ms          (1 %)
    tran: time = 39.04 s     (78.1 %), step = 500 ms          (1 %)
    tran: time = 41.54 s     (83.1 %), step = 500 ms          (1 %)
    tran: time = 44.04 s     (88.1 %), step = 500 ms          (1 %)
    tran: time = 46.54 s     (93.1 %), step = 500 ms          (1 %)
    tran: time = 49.04 s     (98.1 %), step = 500 ms          (1 %)
Number of accepted tran steps =             706

Maximum value achieved for any signal of each quantity: 
V: V(vout) = 3.3 V
I: I(V8:p) = 6.418 uA

~~~~~~~~~~~~~~~~~~~~~~~~~~~~~~~~~
Post-Transient Simulation Summary
~~~~~~~~~~~~~~~~~~~~~~~~~~~~~~~~~
   -   To further speed up simulation, consider
          add ++aps on command line
   -   Non-default settings that could significantly slow down simulation
          errpreset = conservative, default moderate
          reltol = 10e-06, default 100e-06 (conservative)
~~~~~~~~~~~~~~~~~~~~~~~~~~~~~~~~~


During simulation, the CPU load for active processors is :
         0 (4.6 %)       1 (6.7 %)       2 (55.1 %)      3 (13.1 %)
         4 (16.9 %)      5 (5.9 %)       6 (73.5 %)      7 (29.9 %)
         8 (100.0 %)     9 (6.7 %)      10 (4.5 %)      11 (8.1 %)
        12 (48.2 %)     13 (5.3 %)      14 (11.9 %)     15 (6.0 %)
        16 (63.7 %)     17 (35.8 %)     18 (33.3 %)     19 (10.9 %)
        20 (24.3 %)     21 (61.8 %)     22 (13.1 %)     23 (6.7 %)
        24 (8.0 %)      25 (100.0 %)    26 (30.9 %)     27 (2.9 %)
        28 (75.0 %)     29 (10.1 %)     30 (21.0 %)     31 (2.9 %)
        32 (15.9 %)     33 (5.2 %)      34 (4.4 %)      35 (3.7 %)
        36 (29.9 %)     37 (100.0 %)    38 (90.6 %)     39 (10.2 %)
        40 (9.6 %)      41 (4.5 %)      42 (4.5 %)      43 (3.7 %)
        44 (21.9 %)     45 (3.0 %)      46 (20.1 %)     47 (4.4 %)
        Total: 1228.7%
Initial condition solution time: CPU = 2.615 ms, elapsed = 2.67911 ms.
Intrinsic tran analysis time:    CPU = 366.588 ms, elapsed = 378.523 ms.
Total time required for tran analysis `tran': CPU = 445.544 ms, elapsed = 464.031 ms, util. = 96%.
Time accumulated: CPU = 971.459 ms, elapsed = 1.53426 s.
Peak resident memory used = 212 Mbytes.


Notice from spectre during transient analysis `tran', during Monte Carlo analysis `mc1'.
    34 warnings suppressed.

finalTimeOP: writing operating point information to rawfile.

Opening the PSF file ../psf/mc1_separate/076/finalTimeOP.info ...
modelParameter: writing model parameter values to rawfile.

Opening the PSF file ../psf/mc1_separate/076/modelParameter.info ...
element: writing instance parameter values to rawfile.

Opening the PSF file ../psf/mc1_separate/076/element.info ...
outputParameter: writing output parameter values to rawfile.

Opening the PSF file ../psf/mc1_separate/076/outputParameter.info ...
designParamVals: writing netlist parameters to rawfile.

Opening the PSFASCII file ../psf/mc1_separate/076/designParamVals.info ...
primitives: writing primitives to rawfile.

Opening the PSFASCII file ../psf/mc1_separate/076/primitives.info.primitives ...
subckts: writing subcircuits to rawfile.

Opening the PSFASCII file ../psf/mc1_separate/076/subckts.info.subckts ...
77   4.17% 

*****************************************************************************************
* 
* INFO: AMS_processOption = C35B4C3
* 
* INFO: Valid Modules  PIP VG5 HIRES
* 
*****************************************************************************************


Notice from spectre during Monte Carlo analysis `mc1'.
    V8: `period' has the unusually large value of 100 s.


***********************************************
Transient Analysis `tran': time = (0 s -> 50 s)
***********************************************

Opening the PSF file ../psf/mc1_separate/077/tran.tran.tran ...

Warning from spectre during check, during IC analysis, during transient analysis `tran', during Monte Carlo analysis `mc1'.
    WARNING (CMI-2943): Parameter checks have been ignored because the valid value for parameter 'trise' could not be found in 'C1'.
    WARNING (CMI-2943): Parameter checks have been ignored because the valid value for parameter 'trise' could not be found in 'I0.R2.CM'.
    WARNING (CMI-2943): Parameter checks have been ignored because the valid value for parameter 'trise' could not be found in 'I0.R2.CS1'.
    WARNING (CMI-2943): Parameter checks have been ignored because the valid value for parameter 'trise' could not be found in 'I0.R2.CS0'.
    WARNING (CMI-2943): Parameter checks have been ignored because the valid value for parameter 'trise' could not be found in 'I0.C8<3>.C1'.
        Further occurrences of this warning will be suppressed.

Convergence achieved in 12 iterations.
DC simulation time: CPU = 2.586 ms, elapsed = 2.58708 ms.
Important parameter values:
    start = 0 s
    outputstart = 0 s
    stop = 50 s
    step = 50 ms
    maxstep = 500 ms
    ic = all
    useprevic = no
    skipdc = no
    reltol = 10e-06
    abstol(V) = 1 uV
    abstol(I) = 1 pA
    temp = 27 C
    tnom = 27 C
    tempeffects = all
    errpreset = conservative
    method = gear2only
    lteratio = 10
    relref = alllocal
    cmin = 0 F
    gmin = 1 pS
    rabsshort = 1 mOhm


Notice from spectre during transient analysis `tran', during Monte Carlo analysis `mc1'.
    Multithreading is disabled due to the size of the design being too small.


Output and IC/nodeset summary:
                 save   8       (current)
                 save   83      (voltage)

    tran: time = 1.261 s     (2.52 %), step = 138 ms       (276 m%)
    tran: time = 3.865 s     (7.73 %), step = 388.4 ms     (777 m%)
    tran: time = 6.741 s     (13.5 %), step = 500 ms          (1 %)
    tran: time = 9.241 s     (18.5 %), step = 500 ms          (1 %)
    tran: time = 11.74 s     (23.5 %), step = 500 ms          (1 %)
    tran: time = 14.24 s     (28.5 %), step = 500 ms          (1 %)
    tran: time = 16.74 s     (33.5 %), step = 500 ms          (1 %)
    tran: time = 19.24 s     (38.5 %), step = 500 ms          (1 %)
    tran: time = 21.74 s     (43.5 %), step = 500 ms          (1 %)
    tran: time = 24.24 s     (48.5 %), step = 500 ms          (1 %)
    tran: time = 26.74 s     (53.5 %), step = 500 ms          (1 %)
    tran: time = 29.24 s     (58.5 %), step = 500 ms          (1 %)
    tran: time = 31.74 s     (63.5 %), step = 500 ms          (1 %)
    tran: time = 34.24 s     (68.5 %), step = 500 ms          (1 %)
    tran: time = 36.74 s     (73.5 %), step = 500 ms          (1 %)
    tran: time = 39.24 s     (78.5 %), step = 500 ms          (1 %)
    tran: time = 41.74 s     (83.5 %), step = 500 ms          (1 %)
    tran: time = 44.24 s     (88.5 %), step = 500 ms          (1 %)
    tran: time = 46.74 s     (93.5 %), step = 500 ms          (1 %)
    tran: time = 49.24 s     (98.5 %), step = 500 ms          (1 %)
Number of accepted tran steps =             696

Maximum value achieved for any signal of each quantity: 
V: V(S<0>) = 3.3 V
I: I(V8:p) = 7.215 uA
Maximum value of each quantity, excluding Verilog-A modules or dangling current sources:
V: V(vout_filt) = 3.099 V
I: I(V8:p) = 7.215 uA

~~~~~~~~~~~~~~~~~~~~~~~~~~~~~~~~~
Post-Transient Simulation Summary
~~~~~~~~~~~~~~~~~~~~~~~~~~~~~~~~~
   -   To further speed up simulation, consider
          add ++aps on command line
   -   Non-default settings that could significantly slow down simulation
          errpreset = conservative, default moderate
          reltol = 10e-06, default 100e-06 (conservative)
~~~~~~~~~~~~~~~~~~~~~~~~~~~~~~~~~


During simulation, the CPU load for active processors is :
         0 (7.7 %)       1 (5.9 %)       2 (41.5 %)      3 (11.2 %)
         4 (14.3 %)      5 (6.4 %)       6 (81.0 %)      7 (45.8 %)
         8 (100.0 %)     9 (11.8 %)     10 (6.4 %)      11 (7.0 %)
        12 (47.2 %)     13 (5.9 %)      14 (12.8 %)     15 (31.9 %)
        16 (67.7 %)     17 (28.2 %)     18 (45.2 %)     19 (8.6 %)
        20 (21.7 %)     21 (45.7 %)     22 (9.6 %)      23 (11.4 %)
        24 (6.3 %)      25 (100.0 %)    26 (49.7 %)     27 (13.3 %)
        28 (55.6 %)     29 (7.9 %)      30 (32.1 %)     31 (2.7 %)
        32 (11.6 %)     33 (4.3 %)      34 (3.2 %)      35 (4.8 %)
        36 (36.7 %)     37 (100.0 %)    38 (83.9 %)     39 (9.5 %)
        40 (9.1 %)      41 (13.0 %)     42 (5.4 %)      43 (6.9 %)
        44 (21.4 %)     45 (3.3 %)      46 (16.8 %)     47 (4.3 %)
        Total: 1276.9%
Initial condition solution time: CPU = 2.666 ms, elapsed = 2.6679 ms.
Intrinsic tran analysis time:    CPU = 364.803 ms, elapsed = 365.938 ms.
Total time required for tran analysis `tran': CPU = 370.666 ms, elapsed = 372.36 ms, util. = 99.5%.
Time accumulated: CPU = 1.38845 s, elapsed = 1.9635 s.
Peak resident memory used = 212 Mbytes.


Notice from spectre during transient analysis `tran', during Monte Carlo analysis `mc1'.
    34 warnings suppressed.

finalTimeOP: writing operating point information to rawfile.

Opening the PSF file ../psf/mc1_separate/077/finalTimeOP.info ...
modelParameter: writing model parameter values to rawfile.

Opening the PSF file ../psf/mc1_separate/077/modelParameter.info ...
element: writing instance parameter values to rawfile.

Opening the PSF file ../psf/mc1_separate/077/element.info ...
outputParameter: writing output parameter values to rawfile.

Opening the PSF file ../psf/mc1_separate/077/outputParameter.info ...
designParamVals: writing netlist parameters to rawfile.

Opening the PSFASCII file ../psf/mc1_separate/077/designParamVals.info ...
primitives: writing primitives to rawfile.

Opening the PSFASCII file ../psf/mc1_separate/077/primitives.info.primitives ...
subckts: writing subcircuits to rawfile.

Opening the PSFASCII file ../psf/mc1_separate/077/subckts.info.subckts ...
    mc1: iteration = 77          (4.17 %), step = 1            (4.17 %)
78   8.33% 

*****************************************************************************************
* 
* INFO: AMS_processOption = C35B4C3
* 
* INFO: Valid Modules  PIP VG5 HIRES
* 
*****************************************************************************************


Notice from spectre during Monte Carlo analysis `mc1'.
    V8: `period' has the unusually large value of 100 s.


***********************************************
Transient Analysis `tran': time = (0 s -> 50 s)
***********************************************

Opening the PSF file ../psf/mc1_separate/078/tran.tran.tran ...

Warning from spectre during check, during IC analysis, during transient analysis `tran', during Monte Carlo analysis `mc1'.
    WARNING (CMI-2943): Parameter checks have been ignored because the valid value for parameter 'trise' could not be found in 'C1'.
    WARNING (CMI-2943): Parameter checks have been ignored because the valid value for parameter 'trise' could not be found in 'I0.R2.CM'.
    WARNING (CMI-2943): Parameter checks have been ignored because the valid value for parameter 'trise' could not be found in 'I0.R2.CS1'.
    WARNING (CMI-2943): Parameter checks have been ignored because the valid value for parameter 'trise' could not be found in 'I0.R2.CS0'.
    WARNING (CMI-2943): Parameter checks have been ignored because the valid value for parameter 'trise' could not be found in 'I0.C8<3>.C1'.
        Further occurrences of this warning will be suppressed.

Convergence achieved in 12 iterations.
DC simulation time: CPU = 2.17 ms, elapsed = 2.17009 ms.
Important parameter values:
    start = 0 s
    outputstart = 0 s
    stop = 50 s
    step = 50 ms
    maxstep = 500 ms
    ic = all
    useprevic = no
    skipdc = no
    reltol = 10e-06
    abstol(V) = 1 uV
    abstol(I) = 1 pA
    temp = 27 C
    tnom = 27 C
    tempeffects = all
    errpreset = conservative
    method = gear2only
    lteratio = 10
    relref = alllocal
    cmin = 0 F
    gmin = 1 pS
    rabsshort = 1 mOhm


Notice from spectre during transient analysis `tran', during Monte Carlo analysis `mc1'.
    Multithreading is disabled due to the size of the design being too small.


Output and IC/nodeset summary:
                 save   8       (current)
                 save   83      (voltage)

    tran: time = 1.31 s      (2.62 %), step = 146.3 ms     (293 m%)
    tran: time = 4.066 s     (8.13 %), step = 402.4 ms     (805 m%)
    tran: time = 6.457 s     (12.9 %), step = 500 ms          (1 %)
    tran: time = 8.957 s     (17.9 %), step = 500 ms          (1 %)
    tran: time = 11.46 s     (22.9 %), step = 500 ms          (1 %)
    tran: time = 13.96 s     (27.9 %), step = 500 ms          (1 %)
    tran: time = 16.46 s     (32.9 %), step = 500 ms          (1 %)
    tran: time = 18.96 s     (37.9 %), step = 500 ms          (1 %)
    tran: time = 21.46 s     (42.9 %), step = 500 ms          (1 %)
    tran: time = 23.96 s     (47.9 %), step = 500 ms          (1 %)
    tran: time = 26.46 s     (52.9 %), step = 500 ms          (1 %)
    tran: time = 28.96 s     (57.9 %), step = 500 ms          (1 %)
    tran: time = 31.46 s     (62.9 %), step = 500 ms          (1 %)
    tran: time = 33.96 s     (67.9 %), step = 500 ms          (1 %)
    tran: time = 36.46 s     (72.9 %), step = 500 ms          (1 %)
    tran: time = 38.96 s     (77.9 %), step = 500 ms          (1 %)
    tran: time = 41.46 s     (82.9 %), step = 500 ms          (1 %)
    tran: time = 43.96 s     (87.9 %), step = 500 ms          (1 %)
    tran: time = 46.46 s     (92.9 %), step = 500 ms          (1 %)
    tran: time = 48.96 s     (97.9 %), step = 500 ms          (1 %)
Number of accepted tran steps =             701

Maximum value achieved for any signal of each quantity: 
V: V(S<0>) = 3.3 V
I: I(V8:p) = 6.814 uA
Maximum value of each quantity, excluding Verilog-A modules or dangling current sources:
V: V(vout_filt) = 3.286 V
I: I(V8:p) = 6.814 uA

~~~~~~~~~~~~~~~~~~~~~~~~~~~~~~~~~
Post-Transient Simulation Summary
~~~~~~~~~~~~~~~~~~~~~~~~~~~~~~~~~
   -   To further speed up simulation, consider
          add ++aps on command line
   -   Non-default settings that could significantly slow down simulation
          errpreset = conservative, default moderate
          reltol = 10e-06, default 100e-06 (conservative)
~~~~~~~~~~~~~~~~~~~~~~~~~~~~~~~~~


During simulation, the CPU load for active processors is :
         0 (7.6 %)       1 (5.3 %)       2 (35.5 %)      3 (10.1 %)
         4 (13.4 %)      5 (5.7 %)       6 (84.5 %)      7 (53.7 %)
         8 (100.0 %)     9 (14.7 %)     10 (6.1 %)      11 (7.8 %)
        12 (48.3 %)     13 (5.3 %)      14 (27.9 %)     15 (42.0 %)
        16 (72.9 %)     17 (24.3 %)     18 (37.7 %)     19 (7.9 %)
        20 (20.4 %)     21 (38.4 %)     22 (17.5 %)     23 (10.7 %)
        24 (5.6 %)      25 (100.0 %)    26 (58.4 %)     27 (10.9 %)
        28 (45.7 %)     29 (6.5 %)      30 (33.2 %)     31 (2.6 %)
        32 (9.5 %)      33 (3.5 %)      34 (2.6 %)      35 (3.9 %)
        36 (47.8 %)     37 (100.0 %)    38 (69.8 %)     39 (10.4 %)
        40 (10.5 %)     41 (23.0 %)     42 (7.9 %)      43 (6.6 %)
        44 (23.1 %)     45 (19.4 %)     46 (16.3 %)     47 (5.3 %)
        Total: 1320.5%
Initial condition solution time: CPU = 2.217 ms, elapsed = 2.21992 ms.
Intrinsic tran analysis time:    CPU = 365.946 ms, elapsed = 367.184 ms.
Total time required for tran analysis `tran': CPU = 370.232 ms, elapsed = 372 ms, util. = 99.5%.
Time accumulated: CPU = 1.79948 s, elapsed = 2.38686 s.
Peak resident memory used = 213 Mbytes.


Notice from spectre during transient analysis `tran', during Monte Carlo analysis `mc1'.
    34 warnings suppressed.

finalTimeOP: writing operating point information to rawfile.

Opening the PSF file ../psf/mc1_separate/078/finalTimeOP.info ...
modelParameter: writing model parameter values to rawfile.

Opening the PSF file ../psf/mc1_separate/078/modelParameter.info ...
element: writing instance parameter values to rawfile.

Opening the PSF file ../psf/mc1_separate/078/element.info ...
outputParameter: writing output parameter values to rawfile.

Opening the PSF file ../psf/mc1_separate/078/outputParameter.info ...
designParamVals: writing netlist parameters to rawfile.

Opening the PSFASCII file ../psf/mc1_separate/078/designParamVals.info ...
primitives: writing primitives to rawfile.

Opening the PSFASCII file ../psf/mc1_separate/078/primitives.info.primitives ...
subckts: writing subcircuits to rawfile.

Opening the PSFASCII file ../psf/mc1_separate/078/subckts.info.subckts ...
    mc1: iteration = 78          (8.33 %), step = 1            (4.17 %)
79  12.50% 

*****************************************************************************************
* 
* INFO: AMS_processOption = C35B4C3
* 
* INFO: Valid Modules  PIP VG5 HIRES
* 
*****************************************************************************************


Notice from spectre during Monte Carlo analysis `mc1'.
    V8: `period' has the unusually large value of 100 s.


***********************************************
Transient Analysis `tran': time = (0 s -> 50 s)
***********************************************

Opening the PSF file ../psf/mc1_separate/079/tran.tran.tran ...

Warning from spectre during check, during IC analysis, during transient analysis `tran', during Monte Carlo analysis `mc1'.
    WARNING (CMI-2943): Parameter checks have been ignored because the valid value for parameter 'trise' could not be found in 'C1'.
    WARNING (CMI-2943): Parameter checks have been ignored because the valid value for parameter 'trise' could not be found in 'I0.R2.CM'.
    WARNING (CMI-2943): Parameter checks have been ignored because the valid value for parameter 'trise' could not be found in 'I0.R2.CS1'.
    WARNING (CMI-2943): Parameter checks have been ignored because the valid value for parameter 'trise' could not be found in 'I0.R2.CS0'.
    WARNING (CMI-2943): Parameter checks have been ignored because the valid value for parameter 'trise' could not be found in 'I0.C8<3>.C1'.
        Further occurrences of this warning will be suppressed.

Convergence achieved in 12 iterations.
DC simulation time: CPU = 2.109 ms, elapsed = 2.10905 ms.
Important parameter values:
    start = 0 s
    outputstart = 0 s
    stop = 50 s
    step = 50 ms
    maxstep = 500 ms
    ic = all
    useprevic = no
    skipdc = no
    reltol = 10e-06
    abstol(V) = 1 uV
    abstol(I) = 1 pA
    temp = 27 C
    tnom = 27 C
    tempeffects = all
    errpreset = conservative
    method = gear2only
    lteratio = 10
    relref = alllocal
    cmin = 0 F
    gmin = 1 pS
    rabsshort = 1 mOhm


Notice from spectre during transient analysis `tran', during Monte Carlo analysis `mc1'.
    Multithreading is disabled due to the size of the design being too small.


Output and IC/nodeset summary:
                 save   8       (current)
                 save   83      (voltage)

    tran: time = 1.41 s      (2.82 %), step = 161.9 ms     (324 m%)
    tran: time = 4.019 s     (8.04 %), step = 398 ms       (796 m%)
    tran: time = 6.343 s     (12.7 %), step = 500 ms          (1 %)
    tran: time = 8.843 s     (17.7 %), step = 500 ms          (1 %)
    tran: time = 11.34 s     (22.7 %), step = 500 ms          (1 %)
    tran: time = 13.84 s     (27.7 %), step = 500 ms          (1 %)
    tran: time = 16.34 s     (32.7 %), step = 500 ms          (1 %)
    tran: time = 18.84 s     (37.7 %), step = 500 ms          (1 %)
    tran: time = 21.34 s     (42.7 %), step = 500 ms          (1 %)
    tran: time = 23.84 s     (47.7 %), step = 500 ms          (1 %)
    tran: time = 26.34 s     (52.7 %), step = 500 ms          (1 %)
    tran: time = 28.84 s     (57.7 %), step = 500 ms          (1 %)
    tran: time = 31.34 s     (62.7 %), step = 500 ms          (1 %)
    tran: time = 33.84 s     (67.7 %), step = 500 ms          (1 %)
    tran: time = 36.34 s     (72.7 %), step = 500 ms          (1 %)
    tran: time = 38.84 s     (77.7 %), step = 500 ms          (1 %)
    tran: time = 41.34 s     (82.7 %), step = 500 ms          (1 %)
    tran: time = 43.84 s     (87.7 %), step = 500 ms          (1 %)
    tran: time = 46.34 s     (92.7 %), step = 500 ms          (1 %)
    tran: time = 48.84 s     (97.7 %), step = 500 ms          (1 %)
Number of accepted tran steps =             720

Maximum value achieved for any signal of each quantity: 
V: V(vout) = 3.3 V
I: I(V8:p) = 6.392 uA

~~~~~~~~~~~~~~~~~~~~~~~~~~~~~~~~~
Post-Transient Simulation Summary
~~~~~~~~~~~~~~~~~~~~~~~~~~~~~~~~~
   -   To further speed up simulation, consider
          add ++aps on command line
   -   Non-default settings that could significantly slow down simulation
          errpreset = conservative, default moderate
          reltol = 10e-06, default 100e-06 (conservative)
~~~~~~~~~~~~~~~~~~~~~~~~~~~~~~~~~


During simulation, the CPU load for active processors is :
         0 (7.9 %)       1 (14.0 %)      2 (31.6 %)      3 (9.9 %)
         4 (11.7 %)      5 (5.9 %)       6 (86.9 %)      7 (52.6 %)
         8 (100.0 %)     9 (23.4 %)     10 (15.9 %)     11 (7.0 %)
        12 (42.7 %)     13 (10.9 %)     14 (38.6 %)     15 (51.3 %)
        16 (77.1 %)     17 (22.6 %)     18 (32.6 %)     19 (7.0 %)
        20 (17.3 %)     21 (33.8 %)     22 (18.5 %)     23 (9.7 %)
        24 (9.5 %)      25 (100.0 %)    26 (53.3 %)     27 (10.3 %)
        28 (41.2 %)     29 (7.4 %)      30 (28.9 %)     31 (14.0 %)
        32 (10.2 %)     33 (3.7 %)      34 (2.6 %)      35 (3.7 %)
        36 (55.8 %)     37 (100.0 %)    38 (65.7 %)     39 (11.7 %)
        40 (10.0 %)     41 (27.1 %)     42 (9.3 %)      43 (5.6 %)
        44 (22.7 %)     45 (18.6 %)     46 (14.2 %)     47 (5.5 %)
        Total: 1359.9%
Initial condition solution time: CPU = 2.149 ms, elapsed = 2.15006 ms.
Intrinsic tran analysis time:    CPU = 377.944 ms, elapsed = 379.145 ms.
Total time required for tran analysis `tran': CPU = 382.304 ms, elapsed = 384.048 ms, util. = 99.5%.
Time accumulated: CPU = 2.21945 s, elapsed = 2.81919 s.
Peak resident memory used = 213 Mbytes.


Notice from spectre during transient analysis `tran', during Monte Carlo analysis `mc1'.
    34 warnings suppressed.

finalTimeOP: writing operating point information to rawfile.

Opening the PSF file ../psf/mc1_separate/079/finalTimeOP.info ...
modelParameter: writing model parameter values to rawfile.

Opening the PSF file ../psf/mc1_separate/079/modelParameter.info ...
element: writing instance parameter values to rawfile.

Opening the PSF file ../psf/mc1_separate/079/element.info ...
outputParameter: writing output parameter values to rawfile.

Opening the PSF file ../psf/mc1_separate/079/outputParameter.info ...
designParamVals: writing netlist parameters to rawfile.

Opening the PSFASCII file ../psf/mc1_separate/079/designParamVals.info ...
primitives: writing primitives to rawfile.

Opening the PSFASCII file ../psf/mc1_separate/079/primitives.info.primitives ...
subckts: writing subcircuits to rawfile.

Opening the PSFASCII file ../psf/mc1_separate/079/subckts.info.subckts ...
    mc1: iteration = 79          (12.5 %), step = 1            (4.17 %)
80  16.67% 

*****************************************************************************************
* 
* INFO: AMS_processOption = C35B4C3
* 
* INFO: Valid Modules  PIP VG5 HIRES
* 
*****************************************************************************************


Notice from spectre during Monte Carlo analysis `mc1'.
    V8: `period' has the unusually large value of 100 s.


***********************************************
Transient Analysis `tran': time = (0 s -> 50 s)
***********************************************

Opening the PSF file ../psf/mc1_separate/080/tran.tran.tran ...

Warning from spectre during check, during IC analysis, during transient analysis `tran', during Monte Carlo analysis `mc1'.
    WARNING (CMI-2943): Parameter checks have been ignored because the valid value for parameter 'trise' could not be found in 'C1'.
    WARNING (CMI-2943): Parameter checks have been ignored because the valid value for parameter 'trise' could not be found in 'I0.R2.CM'.
    WARNING (CMI-2943): Parameter checks have been ignored because the valid value for parameter 'trise' could not be found in 'I0.R2.CS1'.
    WARNING (CMI-2943): Parameter checks have been ignored because the valid value for parameter 'trise' could not be found in 'I0.R2.CS0'.
    WARNING (CMI-2943): Parameter checks have been ignored because the valid value for parameter 'trise' could not be found in 'I0.C8<3>.C1'.
        Further occurrences of this warning will be suppressed.

Convergence achieved in 12 iterations.
DC simulation time: CPU = 2.081 ms, elapsed = 2.08712 ms.
Important parameter values:
    start = 0 s
    outputstart = 0 s
    stop = 50 s
    step = 50 ms
    maxstep = 500 ms
    ic = all
    useprevic = no
    skipdc = no
    reltol = 10e-06
    abstol(V) = 1 uV
    abstol(I) = 1 pA
    temp = 27 C
    tnom = 27 C
    tempeffects = all
    errpreset = conservative
    method = gear2only
    lteratio = 10
    relref = alllocal
    cmin = 0 F
    gmin = 1 pS
    rabsshort = 1 mOhm


Notice from spectre during transient analysis `tran', during Monte Carlo analysis `mc1'.
    Multithreading is disabled due to the size of the design being too small.


Output and IC/nodeset summary:
                 save   8       (current)
                 save   83      (voltage)

    tran: time = 1.384 s     (2.77 %), step = 157.3 ms     (315 m%)
    tran: time = 3.92 s      (7.84 %), step = 389.7 ms     (779 m%)
    tran: time = 6.72 s      (13.4 %), step = 500 ms          (1 %)
    tran: time = 9.22 s      (18.4 %), step = 500 ms          (1 %)
    tran: time = 11.72 s     (23.4 %), step = 500 ms          (1 %)
    tran: time = 14.22 s     (28.4 %), step = 500 ms          (1 %)
    tran: time = 16.72 s     (33.4 %), step = 500 ms          (1 %)
    tran: time = 19.22 s     (38.4 %), step = 500 ms          (1 %)
    tran: time = 21.72 s     (43.4 %), step = 500 ms          (1 %)
    tran: time = 24.22 s     (48.4 %), step = 500 ms          (1 %)
    tran: time = 26.72 s     (53.4 %), step = 500 ms          (1 %)
    tran: time = 29.22 s     (58.4 %), step = 500 ms          (1 %)
    tran: time = 31.72 s     (63.4 %), step = 500 ms          (1 %)
    tran: time = 34.22 s     (68.4 %), step = 500 ms          (1 %)
    tran: time = 36.72 s     (73.4 %), step = 500 ms          (1 %)
    tran: time = 39.22 s     (78.4 %), step = 500 ms          (1 %)
    tran: time = 41.72 s     (83.4 %), step = 500 ms          (1 %)
    tran: time = 44.22 s     (88.4 %), step = 500 ms          (1 %)
    tran: time = 46.72 s     (93.4 %), step = 500 ms          (1 %)
    tran: time = 49.22 s     (98.4 %), step = 500 ms          (1 %)
Number of accepted tran steps =             718

Maximum value achieved for any signal of each quantity: 
V: V(vout) = 3.3 V
I: I(V8:p) = 6.361 uA

~~~~~~~~~~~~~~~~~~~~~~~~~~~~~~~~~
Post-Transient Simulation Summary
~~~~~~~~~~~~~~~~~~~~~~~~~~~~~~~~~
   -   To further speed up simulation, consider
          add ++aps on command line
   -   Non-default settings that could significantly slow down simulation
          errpreset = conservative, default moderate
          reltol = 10e-06, default 100e-06 (conservative)
~~~~~~~~~~~~~~~~~~~~~~~~~~~~~~~~~


During simulation, the CPU load for active processors is :
         0 (7.5 %)       1 (25.5 %)      2 (27.8 %)      3 (8.9 %)
         4 (10.2 %)      5 (5.7 %)       6 (88.7 %)      7 (49.8 %)
         8 (100.0 %)     9 (29.2 %)     10 (20.6 %)     11 (7.3 %)
        12 (40.9 %)     13 (12.3 %)     14 (41.9 %)     15 (56.3 %)
        16 (79.7 %)     17 (25.7 %)     18 (29.5 %)     19 (6.7 %)
        20 (26.8 %)     21 (30.2 %)     22 (16.6 %)     23 (8.7 %)
        24 (8.5 %)      25 (100.0 %)    26 (46.4 %)     27 (9.2 %)
        28 (36.6 %)     29 (6.7 %)      30 (38.3 %)     31 (25.2 %)
        32 (9.1 %)      33 (13.1 %)     34 (2.9 %)      35 (3.8 %)
        36 (61.3 %)     37 (100.0 %)    38 (59.9 %)     39 (12.9 %)
        40 (9.3 %)      41 (26.4 %)     42 (10.6 %)     43 (6.4 %)
        44 (22.5 %)     45 (16.1 %)     46 (14.1 %)     47 (5.7 %)
        Total: 1401.6%
Initial condition solution time: CPU = 2.119 ms, elapsed = 2.12717 ms.
Intrinsic tran analysis time:    CPU = 378.303 ms, elapsed = 379.305 ms.
Total time required for tran analysis `tran': CPU = 382.562 ms, elapsed = 384.165 ms, util. = 99.6%.
Time accumulated: CPU = 2.63987 s, elapsed = 3.25273 s.
Peak resident memory used = 213 Mbytes.


Notice from spectre during transient analysis `tran', during Monte Carlo analysis `mc1'.
    34 warnings suppressed.

finalTimeOP: writing operating point information to rawfile.

Opening the PSF file ../psf/mc1_separate/080/finalTimeOP.info ...
modelParameter: writing model parameter values to rawfile.

Opening the PSF file ../psf/mc1_separate/080/modelParameter.info ...
element: writing instance parameter values to rawfile.

Opening the PSF file ../psf/mc1_separate/080/element.info ...
outputParameter: writing output parameter values to rawfile.

Opening the PSF file ../psf/mc1_separate/080/outputParameter.info ...
designParamVals: writing netlist parameters to rawfile.

Opening the PSFASCII file ../psf/mc1_separate/080/designParamVals.info ...
primitives: writing primitives to rawfile.

Opening the PSFASCII file ../psf/mc1_separate/080/primitives.info.primitives ...
subckts: writing subcircuits to rawfile.

Opening the PSFASCII file ../psf/mc1_separate/080/subckts.info.subckts ...
    mc1: iteration = 80          (16.7 %), step = 1            (4.17 %)
81  20.83% 

*****************************************************************************************
* 
* INFO: AMS_processOption = C35B4C3
* 
* INFO: Valid Modules  PIP VG5 HIRES
* 
*****************************************************************************************


Notice from spectre during Monte Carlo analysis `mc1'.
    V8: `period' has the unusually large value of 100 s.


***********************************************
Transient Analysis `tran': time = (0 s -> 50 s)
***********************************************

Opening the PSF file ../psf/mc1_separate/081/tran.tran.tran ...

Warning from spectre during check, during IC analysis, during transient analysis `tran', during Monte Carlo analysis `mc1'.
    WARNING (CMI-2943): Parameter checks have been ignored because the valid value for parameter 'trise' could not be found in 'C1'.
    WARNING (CMI-2943): Parameter checks have been ignored because the valid value for parameter 'trise' could not be found in 'I0.R2.CM'.
    WARNING (CMI-2943): Parameter checks have been ignored because the valid value for parameter 'trise' could not be found in 'I0.R2.CS1'.
    WARNING (CMI-2943): Parameter checks have been ignored because the valid value for parameter 'trise' could not be found in 'I0.R2.CS0'.
    WARNING (CMI-2943): Parameter checks have been ignored because the valid value for parameter 'trise' could not be found in 'I0.C8<3>.C1'.
        Further occurrences of this warning will be suppressed.

Convergence achieved in 12 iterations.
DC simulation time: CPU = 2.122 ms, elapsed = 2.12312 ms.
Important parameter values:
    start = 0 s
    outputstart = 0 s
    stop = 50 s
    step = 50 ms
    maxstep = 500 ms
    ic = all
    useprevic = no
    skipdc = no
    reltol = 10e-06
    abstol(V) = 1 uV
    abstol(I) = 1 pA
    temp = 27 C
    tnom = 27 C
    tempeffects = all
    errpreset = conservative
    method = gear2only
    lteratio = 10
    relref = alllocal
    cmin = 0 F
    gmin = 1 pS
    rabsshort = 1 mOhm


Notice from spectre during transient analysis `tran', during Monte Carlo analysis `mc1'.
    Multithreading is disabled due to the size of the design being too small.


Output and IC/nodeset summary:
                 save   8       (current)
                 save   83      (voltage)

    tran: time = 1.286 s     (2.57 %), step = 138.6 ms     (277 m%)
    tran: time = 3.834 s     (7.67 %), step = 373.7 ms     (747 m%)
    tran: time = 6.662 s     (13.3 %), step = 500 ms          (1 %)
    tran: time = 9.162 s     (18.3 %), step = 500 ms          (1 %)
    tran: time = 11.66 s     (23.3 %), step = 500 ms          (1 %)
    tran: time = 14.16 s     (28.3 %), step = 500 ms          (1 %)
    tran: time = 16.66 s     (33.3 %), step = 500 ms          (1 %)
    tran: time = 19.16 s     (38.3 %), step = 500 ms          (1 %)
    tran: time = 21.66 s     (43.3 %), step = 500 ms          (1 %)
    tran: time = 24.16 s     (48.3 %), step = 500 ms          (1 %)
    tran: time = 26.66 s     (53.3 %), step = 500 ms          (1 %)
    tran: time = 29.16 s     (58.3 %), step = 500 ms          (1 %)
    tran: time = 31.66 s     (63.3 %), step = 500 ms          (1 %)
    tran: time = 34.16 s     (68.3 %), step = 500 ms          (1 %)
    tran: time = 36.66 s     (73.3 %), step = 500 ms          (1 %)
    tran: time = 39.16 s     (78.3 %), step = 500 ms          (1 %)
    tran: time = 41.66 s     (83.3 %), step = 500 ms          (1 %)
    tran: time = 44.16 s     (88.3 %), step = 500 ms          (1 %)
    tran: time = 46.66 s     (93.3 %), step = 500 ms          (1 %)
    tran: time = 49.16 s     (98.3 %), step = 500 ms          (1 %)
Number of accepted tran steps =             694

Maximum value achieved for any signal of each quantity: 
V: V(S<0>) = 3.3 V
I: I(V8:p) = 7.058 uA
Maximum value of each quantity, excluding Verilog-A modules or dangling current sources:
V: V(vout_filt) = 3.01 V
I: I(V8:p) = 7.058 uA

~~~~~~~~~~~~~~~~~~~~~~~~~~~~~~~~~
Post-Transient Simulation Summary
~~~~~~~~~~~~~~~~~~~~~~~~~~~~~~~~~
   -   To further speed up simulation, consider
          add ++aps on command line
   -   Non-default settings that could significantly slow down simulation
          errpreset = conservative, default moderate
          reltol = 10e-06, default 100e-06 (conservative)
~~~~~~~~~~~~~~~~~~~~~~~~~~~~~~~~~


During simulation, the CPU load for active processors is :
         0 (8.0 %)       1 (28.5 %)      2 (27.7 %)      3 (8.2 %)
         4 (9.3 %)       5 (5.1 %)       6 (90.0 %)      7 (55.6 %)
         8 (100.0 %)     9 (26.2 %)     10 (18.5 %)     11 (6.5 %)
        12 (38.1 %)     13 (15.1 %)     14 (37.3 %)     15 (56.0 %)
        16 (70.9 %)     17 (23.7 %)     18 (37.5 %)     19 (17.2 %)
        20 (33.5 %)     21 (27.0 %)     22 (20.2 %)     23 (8.0 %)
        24 (8.4 %)      25 (100.0 %)    26 (41.7 %)     27 (10.4 %)
        28 (32.7 %)     29 (6.5 %)      30 (45.3 %)     31 (33.9 %)
        32 (8.6 %)      33 (20.2 %)     34 (3.1 %)      35 (3.7 %)
        36 (65.5 %)     37 (100.0 %)    38 (53.8 %)     39 (11.8 %)
        40 (9.3 %)      41 (24.1 %)     42 (12.5 %)     43 (6.5 %)
        44 (22.5 %)     45 (15.7 %)     46 (23.9 %)     47 (5.6 %)
        Total: 1433.6%
Initial condition solution time: CPU = 2.18 ms, elapsed = 2.18201 ms.
Intrinsic tran analysis time:    CPU = 361.758 ms, elapsed = 363.183 ms.
Total time required for tran analysis `tran': CPU = 366.093 ms, elapsed = 368.057 ms, util. = 99.5%.
Time accumulated: CPU = 3.04354 s, elapsed = 3.66732 s.
Peak resident memory used = 213 Mbytes.


Notice from spectre during transient analysis `tran', during Monte Carlo analysis `mc1'.
    34 warnings suppressed.

finalTimeOP: writing operating point information to rawfile.

Opening the PSF file ../psf/mc1_separate/081/finalTimeOP.info ...
modelParameter: writing model parameter values to rawfile.

Opening the PSF file ../psf/mc1_separate/081/modelParameter.info ...
element: writing instance parameter values to rawfile.

Opening the PSF file ../psf/mc1_separate/081/element.info ...
outputParameter: writing output parameter values to rawfile.

Opening the PSF file ../psf/mc1_separate/081/outputParameter.info ...
designParamVals: writing netlist parameters to rawfile.

Opening the PSFASCII file ../psf/mc1_separate/081/designParamVals.info ...
primitives: writing primitives to rawfile.

Opening the PSFASCII file ../psf/mc1_separate/081/primitives.info.primitives ...
subckts: writing subcircuits to rawfile.

Opening the PSFASCII file ../psf/mc1_separate/081/subckts.info.subckts ...
    mc1: iteration = 81          (20.8 %), step = 1            (4.17 %)
82  25.00% 

*****************************************************************************************
* 
* INFO: AMS_processOption = C35B4C3
* 
* INFO: Valid Modules  PIP VG5 HIRES
* 
*****************************************************************************************


Notice from spectre during Monte Carlo analysis `mc1'.
    V8: `period' has the unusually large value of 100 s.


***********************************************
Transient Analysis `tran': time = (0 s -> 50 s)
***********************************************

Opening the PSF file ../psf/mc1_separate/082/tran.tran.tran ...

Warning from spectre during check, during IC analysis, during transient analysis `tran', during Monte Carlo analysis `mc1'.
    WARNING (CMI-2943): Parameter checks have been ignored because the valid value for parameter 'trise' could not be found in 'C1'.
    WARNING (CMI-2943): Parameter checks have been ignored because the valid value for parameter 'trise' could not be found in 'I0.R2.CM'.
    WARNING (CMI-2943): Parameter checks have been ignored because the valid value for parameter 'trise' could not be found in 'I0.R2.CS1'.
    WARNING (CMI-2943): Parameter checks have been ignored because the valid value for parameter 'trise' could not be found in 'I0.R2.CS0'.
    WARNING (CMI-2943): Parameter checks have been ignored because the valid value for parameter 'trise' could not be found in 'I0.C8<3>.C1'.
        Further occurrences of this warning will be suppressed.

Convergence achieved in 12 iterations.
DC simulation time: CPU = 2.22 ms, elapsed = 2.21992 ms.
Important parameter values:
    start = 0 s
    outputstart = 0 s
    stop = 50 s
    step = 50 ms
    maxstep = 500 ms
    ic = all
    useprevic = no
    skipdc = no
    reltol = 10e-06
    abstol(V) = 1 uV
    abstol(I) = 1 pA
    temp = 27 C
    tnom = 27 C
    tempeffects = all
    errpreset = conservative
    method = gear2only
    lteratio = 10
    relref = alllocal
    cmin = 0 F
    gmin = 1 pS
    rabsshort = 1 mOhm


Notice from spectre during transient analysis `tran', during Monte Carlo analysis `mc1'.
    Multithreading is disabled due to the size of the design being too small.


Output and IC/nodeset summary:
                 save   8       (current)
                 save   83      (voltage)

    tran: time = 1.402 s      (2.8 %), step = 152.6 ms     (305 m%)
    tran: time = 3.83 s      (7.66 %), step = 387.4 ms     (775 m%)
    tran: time = 6.712 s     (13.4 %), step = 500 ms          (1 %)
    tran: time = 9.212 s     (18.4 %), step = 500 ms          (1 %)
    tran: time = 11.71 s     (23.4 %), step = 500 ms          (1 %)
    tran: time = 14.21 s     (28.4 %), step = 500 ms          (1 %)
    tran: time = 16.71 s     (33.4 %), step = 500 ms          (1 %)
    tran: time = 19.21 s     (38.4 %), step = 500 ms          (1 %)
    tran: time = 21.71 s     (43.4 %), step = 500 ms          (1 %)
    tran: time = 24.21 s     (48.4 %), step = 500 ms          (1 %)
    tran: time = 26.71 s     (53.4 %), step = 500 ms          (1 %)
    tran: time = 29.21 s     (58.4 %), step = 500 ms          (1 %)
    tran: time = 31.71 s     (63.4 %), step = 500 ms          (1 %)
    tran: time = 34.21 s     (68.4 %), step = 500 ms          (1 %)
    tran: time = 36.71 s     (73.4 %), step = 500 ms          (1 %)
    tran: time = 39.21 s     (78.4 %), step = 500 ms          (1 %)
    tran: time = 41.71 s     (83.4 %), step = 500 ms          (1 %)
    tran: time = 44.21 s     (88.4 %), step = 500 ms          (1 %)
    tran: time = 46.71 s     (93.4 %), step = 500 ms          (1 %)
    tran: time = 49.21 s     (98.4 %), step = 500 ms          (1 %)
Number of accepted tran steps =             691

Maximum value achieved for any signal of each quantity: 
V: V(S<0>) = 3.3 V
I: I(V8:p) = 7.108 uA
Maximum value of each quantity, excluding Verilog-A modules or dangling current sources:
V: V(vout_filt) = 3.05 V
I: I(V8:p) = 7.108 uA

~~~~~~~~~~~~~~~~~~~~~~~~~~~~~~~~~
Post-Transient Simulation Summary
~~~~~~~~~~~~~~~~~~~~~~~~~~~~~~~~~
   -   To further speed up simulation, consider
          add ++aps on command line
   -   Non-default settings that could significantly slow down simulation
          errpreset = conservative, default moderate
          reltol = 10e-06, default 100e-06 (conservative)
~~~~~~~~~~~~~~~~~~~~~~~~~~~~~~~~~


During simulation, the CPU load for active processors is :
         0 (7.5 %)       1 (25.6 %)      2 (25.0 %)      3 (7.6 %)
         4 (8.6 %)       5 (4.6 %)       6 (91.0 %)      7 (59.5 %)
         8 (100.0 %)     9 (24.1 %)     10 (18.1 %)     11 (8.6 %)
        12 (34.9 %)     13 (14.3 %)     14 (42.0 %)     15 (50.9 %)
        16 (64.1 %)     17 (21.8 %)     18 (34.3 %)     19 (24.5 %)
        20 (36.2 %)     21 (33.9 %)     22 (23.5 %)     23 (8.2 %)
        24 (8.8 %)      25 (100.0 %)    26 (45.1 %)     27 (14.1 %)
        28 (29.9 %)     29 (6.5 %)      30 (50.9 %)     31 (40.3 %)
        32 (8.2 %)      33 (18.8 %)     34 (3.1 %)      35 (3.5 %)
        36 (68.9 %)     37 (100.0 %)    38 (49.5 %)     39 (11.6 %)
        40 (9.4 %)      41 (22.7 %)     42 (12.5 %)     43 (6.1 %)
        44 (22.2 %)     45 (14.3 %)     46 (31.6 %)     47 (5.6 %)
        Total: 1452.4%
Initial condition solution time: CPU = 2.261 ms, elapsed = 2.26307 ms.
Intrinsic tran analysis time:    CPU = 350.729 ms, elapsed = 351.953 ms.
Total time required for tran analysis `tran': CPU = 355.591 ms, elapsed = 357.349 ms, util. = 99.5%.
Time accumulated: CPU = 3.4409 s, elapsed = 4.07577 s.
Peak resident memory used = 213 Mbytes.


Notice from spectre during transient analysis `tran', during Monte Carlo analysis `mc1'.
    34 warnings suppressed.

finalTimeOP: writing operating point information to rawfile.

Opening the PSF file ../psf/mc1_separate/082/finalTimeOP.info ...
modelParameter: writing model parameter values to rawfile.

Opening the PSF file ../psf/mc1_separate/082/modelParameter.info ...
element: writing instance parameter values to rawfile.

Opening the PSF file ../psf/mc1_separate/082/element.info ...
outputParameter: writing output parameter values to rawfile.

Opening the PSF file ../psf/mc1_separate/082/outputParameter.info ...
designParamVals: writing netlist parameters to rawfile.

Opening the PSFASCII file ../psf/mc1_separate/082/designParamVals.info ...
primitives: writing primitives to rawfile.

Opening the PSFASCII file ../psf/mc1_separate/082/primitives.info.primitives ...
subckts: writing subcircuits to rawfile.

Opening the PSFASCII file ../psf/mc1_separate/082/subckts.info.subckts ...
    mc1: iteration = 82            (25 %), step = 1            (4.17 %)
83  29.17% 

*****************************************************************************************
* 
* INFO: AMS_processOption = C35B4C3
* 
* INFO: Valid Modules  PIP VG5 HIRES
* 
*****************************************************************************************


Notice from spectre during Monte Carlo analysis `mc1'.
    V8: `period' has the unusually large value of 100 s.


***********************************************
Transient Analysis `tran': time = (0 s -> 50 s)
***********************************************

Opening the PSF file ../psf/mc1_separate/083/tran.tran.tran ...

Warning from spectre during check, during IC analysis, during transient analysis `tran', during Monte Carlo analysis `mc1'.
    WARNING (CMI-2943): Parameter checks have been ignored because the valid value for parameter 'trise' could not be found in 'C1'.
    WARNING (CMI-2943): Parameter checks have been ignored because the valid value for parameter 'trise' could not be found in 'I0.R2.CM'.
    WARNING (CMI-2943): Parameter checks have been ignored because the valid value for parameter 'trise' could not be found in 'I0.R2.CS1'.
    WARNING (CMI-2943): Parameter checks have been ignored because the valid value for parameter 'trise' could not be found in 'I0.R2.CS0'.
    WARNING (CMI-2943): Parameter checks have been ignored because the valid value for parameter 'trise' could not be found in 'I0.C8<3>.C1'.
        Further occurrences of this warning will be suppressed.

Convergence achieved in 12 iterations.
DC simulation time: CPU = 2.184 ms, elapsed = 2.18487 ms.
Important parameter values:
    start = 0 s
    outputstart = 0 s
    stop = 50 s
    step = 50 ms
    maxstep = 500 ms
    ic = all
    useprevic = no
    skipdc = no
    reltol = 10e-06
    abstol(V) = 1 uV
    abstol(I) = 1 pA
    temp = 27 C
    tnom = 27 C
    tempeffects = all
    errpreset = conservative
    method = gear2only
    lteratio = 10
    relref = alllocal
    cmin = 0 F
    gmin = 1 pS
    rabsshort = 1 mOhm


Notice from spectre during transient analysis `tran', during Monte Carlo analysis `mc1'.
    Multithreading is disabled due to the size of the design being too small.


Output and IC/nodeset summary:
                 save   8       (current)
                 save   83      (voltage)

    tran: time = 1.305 s     (2.61 %), step = 147 ms       (294 m%)
    tran: time = 4.078 s     (8.16 %), step = 401.7 ms     (803 m%)
    tran: time = 6.457 s     (12.9 %), step = 500 ms          (1 %)
    tran: time = 8.957 s     (17.9 %), step = 500 ms          (1 %)
    tran: time = 11.46 s     (22.9 %), step = 500 ms          (1 %)
    tran: time = 13.96 s     (27.9 %), step = 500 ms          (1 %)
    tran: time = 16.46 s     (32.9 %), step = 500 ms          (1 %)
    tran: time = 18.96 s     (37.9 %), step = 500 ms          (1 %)
    tran: time = 21.46 s     (42.9 %), step = 500 ms          (1 %)
    tran: time = 23.96 s     (47.9 %), step = 500 ms          (1 %)
    tran: time = 26.46 s     (52.9 %), step = 500 ms          (1 %)
    tran: time = 28.96 s     (57.9 %), step = 500 ms          (1 %)
    tran: time = 31.46 s     (62.9 %), step = 500 ms          (1 %)
    tran: time = 33.96 s     (67.9 %), step = 500 ms          (1 %)
    tran: time = 36.46 s     (72.9 %), step = 500 ms          (1 %)
    tran: time = 38.96 s     (77.9 %), step = 500 ms          (1 %)
    tran: time = 41.46 s     (82.9 %), step = 500 ms          (1 %)
    tran: time = 43.96 s     (87.9 %), step = 500 ms          (1 %)
    tran: time = 46.46 s     (92.9 %), step = 500 ms          (1 %)
    tran: time = 48.96 s     (97.9 %), step = 500 ms          (1 %)
Number of accepted tran steps =             705

Maximum value achieved for any signal of each quantity: 
V: V(S<0>) = 3.3 V
I: I(V8:p) = 6.654 uA

~~~~~~~~~~~~~~~~~~~~~~~~~~~~~~~~~
Post-Transient Simulation Summary
~~~~~~~~~~~~~~~~~~~~~~~~~~~~~~~~~
   -   To further speed up simulation, consider
          add ++aps on command line
   -   Non-default settings that could significantly slow down simulation
          errpreset = conservative, default moderate
          reltol = 10e-06, default 100e-06 (conservative)
~~~~~~~~~~~~~~~~~~~~~~~~~~~~~~~~~


During simulation, the CPU load for active processors is :
         0 (7.5 %)       1 (24.1 %)      2 (23.2 %)      3 (7.4 %)
         4 (8.3 %)       5 (4.4 %)       6 (91.8 %)      7 (58.4 %)
         8 (100.0 %)     9 (26.8 %)     10 (16.5 %)     11 (11.5 %)
        12 (32.5 %)     13 (13.4 %)     14 (47.2 %)     15 (47.6 %)
        16 (58.4 %)     17 (19.8 %)     18 (40.1 %)     19 (22.8 %)
        20 (41.7 %)     21 (35.3 %)     22 (21.8 %)     23 (16.5 %)
        24 (8.5 %)      25 (100.0 %)    26 (41.2 %)     27 (13.7 %)
        28 (27.2 %)     29 (6.9 %)      30 (55.2 %)     31 (42.8 %)
        32 (10.7 %)     33 (17.1 %)     34 (3.0 %)      35 (3.4 %)
        36 (71.5 %)     37 (100.0 %)    38 (45.4 %)     39 (12.1 %)
        40 (8.8 %)      41 (21.8 %)     42 (12.0 %)     43 (6.4 %)
        44 (22.2 %)     45 (13.2 %)     46 (36.2 %)     47 (5.7 %)
        Total: 1462.1%
Initial condition solution time: CPU = 2.221 ms, elapsed = 2.22206 ms.
Intrinsic tran analysis time:    CPU = 355.136 ms, elapsed = 356.334 ms.
Total time required for tran analysis `tran': CPU = 359.363 ms, elapsed = 361.081 ms, util. = 99.5%.
Time accumulated: CPU = 3.83765 s, elapsed = 4.48375 s.
Peak resident memory used = 213 Mbytes.


Notice from spectre during transient analysis `tran', during Monte Carlo analysis `mc1'.
    34 warnings suppressed.

finalTimeOP: writing operating point information to rawfile.

Opening the PSF file ../psf/mc1_separate/083/finalTimeOP.info ...
modelParameter: writing model parameter values to rawfile.

Opening the PSF file ../psf/mc1_separate/083/modelParameter.info ...
element: writing instance parameter values to rawfile.

Opening the PSF file ../psf/mc1_separate/083/element.info ...
outputParameter: writing output parameter values to rawfile.

Opening the PSF file ../psf/mc1_separate/083/outputParameter.info ...
designParamVals: writing netlist parameters to rawfile.

Opening the PSFASCII file ../psf/mc1_separate/083/designParamVals.info ...
primitives: writing primitives to rawfile.

Opening the PSFASCII file ../psf/mc1_separate/083/primitives.info.primitives ...
subckts: writing subcircuits to rawfile.

Opening the PSFASCII file ../psf/mc1_separate/083/subckts.info.subckts ...
    mc1: iteration = 83          (29.2 %), step = 1            (4.17 %)
84  33.33% 

*****************************************************************************************
* 
* INFO: AMS_processOption = C35B4C3
* 
* INFO: Valid Modules  PIP VG5 HIRES
* 
*****************************************************************************************


Notice from spectre during Monte Carlo analysis `mc1'.
    V8: `period' has the unusually large value of 100 s.


***********************************************
Transient Analysis `tran': time = (0 s -> 50 s)
***********************************************

Opening the PSF file ../psf/mc1_separate/084/tran.tran.tran ...

Warning from spectre during check, during IC analysis, during transient analysis `tran', during Monte Carlo analysis `mc1'.
    WARNING (CMI-2943): Parameter checks have been ignored because the valid value for parameter 'trise' could not be found in 'C1'.
    WARNING (CMI-2943): Parameter checks have been ignored because the valid value for parameter 'trise' could not be found in 'I0.R2.CM'.
    WARNING (CMI-2943): Parameter checks have been ignored because the valid value for parameter 'trise' could not be found in 'I0.R2.CS1'.
    WARNING (CMI-2943): Parameter checks have been ignored because the valid value for parameter 'trise' could not be found in 'I0.R2.CS0'.
    WARNING (CMI-2943): Parameter checks have been ignored because the valid value for parameter 'trise' could not be found in 'I0.C8<3>.C1'.
        Further occurrences of this warning will be suppressed.

Convergence achieved in 12 iterations.
DC simulation time: CPU = 2.328 ms, elapsed = 2.32792 ms.
Important parameter values:
    start = 0 s
    outputstart = 0 s
    stop = 50 s
    step = 50 ms
    maxstep = 500 ms
    ic = all
    useprevic = no
    skipdc = no
    reltol = 10e-06
    abstol(V) = 1 uV
    abstol(I) = 1 pA
    temp = 27 C
    tnom = 27 C
    tempeffects = all
    errpreset = conservative
    method = gear2only
    lteratio = 10
    relref = alllocal
    cmin = 0 F
    gmin = 1 pS
    rabsshort = 1 mOhm


Notice from spectre during transient analysis `tran', during Monte Carlo analysis `mc1'.
    Multithreading is disabled due to the size of the design being too small.


Output and IC/nodeset summary:
                 save   8       (current)
                 save   83      (voltage)

    tran: time = 1.298 s      (2.6 %), step = 146.7 ms     (293 m%)
    tran: time = 4.147 s     (8.29 %), step = 424.3 ms     (849 m%)
    tran: time = 6.595 s     (13.2 %), step = 500 ms          (1 %)
    tran: time = 9.095 s     (18.2 %), step = 500 ms          (1 %)
    tran: time = 11.59 s     (23.2 %), step = 500 ms          (1 %)
    tran: time = 14.09 s     (28.2 %), step = 500 ms          (1 %)
    tran: time = 16.59 s     (33.2 %), step = 500 ms          (1 %)
    tran: time = 19.09 s     (38.2 %), step = 500 ms          (1 %)
    tran: time = 21.59 s     (43.2 %), step = 500 ms          (1 %)
    tran: time = 24.09 s     (48.2 %), step = 500 ms          (1 %)
    tran: time = 26.59 s     (53.2 %), step = 500 ms          (1 %)
    tran: time = 29.09 s     (58.2 %), step = 500 ms          (1 %)
    tran: time = 31.59 s     (63.2 %), step = 500 ms          (1 %)
    tran: time = 34.09 s     (68.2 %), step = 500 ms          (1 %)
    tran: time = 36.59 s     (73.2 %), step = 500 ms          (1 %)
    tran: time = 39.09 s     (78.2 %), step = 500 ms          (1 %)
    tran: time = 41.59 s     (83.2 %), step = 500 ms          (1 %)
    tran: time = 44.09 s     (88.2 %), step = 500 ms          (1 %)
    tran: time = 46.59 s     (93.2 %), step = 500 ms          (1 %)
    tran: time = 49.09 s     (98.2 %), step = 500 ms          (1 %)
Number of accepted tran steps =             700

Maximum value achieved for any signal of each quantity: 
V: V(S<0>) = 3.3 V
I: I(V8:p) = 6.693 uA

~~~~~~~~~~~~~~~~~~~~~~~~~~~~~~~~~
Post-Transient Simulation Summary
~~~~~~~~~~~~~~~~~~~~~~~~~~~~~~~~~
   -   To further speed up simulation, consider
          add ++aps on command line
   -   Non-default settings that could significantly slow down simulation
          errpreset = conservative, default moderate
          reltol = 10e-06, default 100e-06 (conservative)
~~~~~~~~~~~~~~~~~~~~~~~~~~~~~~~~~


During simulation, the CPU load for active processors is :
         0 (7.4 %)       1 (22.1 %)      2 (21.2 %)      3 (12.4 %)
         4 (8.2 %)       5 (4.2 %)       6 (92.5 %)      7 (53.7 %)
         8 (100.0 %)     9 (33.1 %)     10 (15.5 %)     11 (10.9 %)
        12 (30.2 %)     13 (13.6 %)     14 (51.3 %)     15 (43.8 %)
        16 (53.8 %)     17 (18.4 %)     18 (37.0 %)     19 (29.4 %)
        20 (46.6 %)     21 (35.4 %)     22 (20.2 %)     23 (23.5 %)
        24 (7.9 %)      25 (100.0 %)    26 (37.8 %)     27 (13.0 %)
        28 (24.9 %)     29 (6.3 %)      30 (59.0 %)     31 (39.3 %)
        32 (17.8 %)     33 (15.7 %)     34 (2.8 %)      35 (3.2 %)
        36 (73.5 %)     37 (100.0 %)    38 (43.2 %)     39 (11.7 %)
        40 (8.4 %)      41 (21.6 %)     42 (10.9 %)     43 (6.1 %)
        44 (28.9 %)     45 (14.0 %)     46 (33.2 %)     47 (5.5 %)
        Total: 1469.1%
Initial condition solution time: CPU = 2.38 ms, elapsed = 2.38204 ms.
Intrinsic tran analysis time:    CPU = 355.2 ms, elapsed = 356.44 ms.
Total time required for tran analysis `tran': CPU = 360.138 ms, elapsed = 361.954 ms, util. = 99.5%.
Time accumulated: CPU = 4.23706 s, elapsed = 4.89504 s.
Peak resident memory used = 213 Mbytes.


Notice from spectre during transient analysis `tran', during Monte Carlo analysis `mc1'.
    34 warnings suppressed.

finalTimeOP: writing operating point information to rawfile.

Opening the PSF file ../psf/mc1_separate/084/finalTimeOP.info ...
modelParameter: writing model parameter values to rawfile.

Opening the PSF file ../psf/mc1_separate/084/modelParameter.info ...
element: writing instance parameter values to rawfile.

Opening the PSF file ../psf/mc1_separate/084/element.info ...
outputParameter: writing output parameter values to rawfile.

Opening the PSF file ../psf/mc1_separate/084/outputParameter.info ...
designParamVals: writing netlist parameters to rawfile.

Opening the PSFASCII file ../psf/mc1_separate/084/designParamVals.info ...
primitives: writing primitives to rawfile.

Opening the PSFASCII file ../psf/mc1_separate/084/primitives.info.primitives ...
subckts: writing subcircuits to rawfile.

Opening the PSFASCII file ../psf/mc1_separate/084/subckts.info.subckts ...
    mc1: iteration = 84          (33.3 %), step = 1            (4.17 %)
85  37.50% 

*****************************************************************************************
* 
* INFO: AMS_processOption = C35B4C3
* 
* INFO: Valid Modules  PIP VG5 HIRES
* 
*****************************************************************************************


Notice from spectre during Monte Carlo analysis `mc1'.
    V8: `period' has the unusually large value of 100 s.


***********************************************
Transient Analysis `tran': time = (0 s -> 50 s)
***********************************************

Opening the PSF file ../psf/mc1_separate/085/tran.tran.tran ...

Warning from spectre during check, during IC analysis, during transient analysis `tran', during Monte Carlo analysis `mc1'.
    WARNING (CMI-2943): Parameter checks have been ignored because the valid value for parameter 'trise' could not be found in 'C1'.
    WARNING (CMI-2943): Parameter checks have been ignored because the valid value for parameter 'trise' could not be found in 'I0.R2.CM'.
    WARNING (CMI-2943): Parameter checks have been ignored because the valid value for parameter 'trise' could not be found in 'I0.R2.CS1'.
    WARNING (CMI-2943): Parameter checks have been ignored because the valid value for parameter 'trise' could not be found in 'I0.R2.CS0'.
    WARNING (CMI-2943): Parameter checks have been ignored because the valid value for parameter 'trise' could not be found in 'I0.C8<3>.C1'.
        Further occurrences of this warning will be suppressed.

Convergence achieved in 12 iterations.
DC simulation time: CPU = 2.171 ms, elapsed = 2.17104 ms.
Important parameter values:
    start = 0 s
    outputstart = 0 s
    stop = 50 s
    step = 50 ms
    maxstep = 500 ms
    ic = all
    useprevic = no
    skipdc = no
    reltol = 10e-06
    abstol(V) = 1 uV
    abstol(I) = 1 pA
    temp = 27 C
    tnom = 27 C
    tempeffects = all
    errpreset = conservative
    method = gear2only
    lteratio = 10
    relref = alllocal
    cmin = 0 F
    gmin = 1 pS
    rabsshort = 1 mOhm


Notice from spectre during transient analysis `tran', during Monte Carlo analysis `mc1'.
    Multithreading is disabled due to the size of the design being too small.


Output and IC/nodeset summary:
                 save   8       (current)
                 save   83      (voltage)

    tran: time = 1.374 s     (2.75 %), step = 156.4 ms     (313 m%)
    tran: time = 3.862 s     (7.72 %), step = 380.1 ms     (760 m%)
    tran: time = 6.625 s     (13.3 %), step = 500 ms          (1 %)
    tran: time = 9.125 s     (18.3 %), step = 500 ms          (1 %)
    tran: time = 11.63 s     (23.3 %), step = 500 ms          (1 %)
    tran: time = 14.13 s     (28.3 %), step = 500 ms          (1 %)
    tran: time = 16.63 s     (33.3 %), step = 500 ms          (1 %)
    tran: time = 19.13 s     (38.3 %), step = 500 ms          (1 %)
    tran: time = 21.63 s     (43.3 %), step = 500 ms          (1 %)
    tran: time = 24.13 s     (48.3 %), step = 500 ms          (1 %)
    tran: time = 26.63 s     (53.3 %), step = 500 ms          (1 %)
    tran: time = 29.13 s     (58.3 %), step = 500 ms          (1 %)
    tran: time = 31.63 s     (63.3 %), step = 500 ms          (1 %)
    tran: time = 34.13 s     (68.3 %), step = 500 ms          (1 %)
    tran: time = 36.63 s     (73.3 %), step = 500 ms          (1 %)
    tran: time = 39.13 s     (78.3 %), step = 500 ms          (1 %)
    tran: time = 41.63 s     (83.3 %), step = 500 ms          (1 %)
    tran: time = 44.13 s     (88.3 %), step = 500 ms          (1 %)
    tran: time = 46.63 s     (93.3 %), step = 500 ms          (1 %)
    tran: time = 49.13 s     (98.3 %), step = 500 ms          (1 %)
Number of accepted tran steps =             715

Maximum value achieved for any signal of each quantity: 
V: V(vout) = 3.3 V
I: I(V8:p) = 6.525 uA

~~~~~~~~~~~~~~~~~~~~~~~~~~~~~~~~~
Post-Transient Simulation Summary
~~~~~~~~~~~~~~~~~~~~~~~~~~~~~~~~~
   -   To further speed up simulation, consider
          add ++aps on command line
   -   Non-default settings that could significantly slow down simulation
          errpreset = conservative, default moderate
          reltol = 10e-06, default 100e-06 (conservative)
~~~~~~~~~~~~~~~~~~~~~~~~~~~~~~~~~


During simulation, the CPU load for active processors is :
         0 (7.1 %)       1 (22.1 %)      2 (23.8 %)      3 (12.4 %)
         4 (8.1 %)       5 (4.5 %)       6 (93.1 %)      7 (50.1 %)
         8 (100.0 %)     9 (37.6 %)     10 (14.9 %)     11 (11.0 %)
        12 (29.0 %)     13 (14.2 %)     14 (55.1 %)     15 (40.8 %)
        16 (49.7 %)     17 (17.1 %)     18 (35.1 %)     19 (28.1 %)
        20 (50.0 %)     21 (36.9 %)     22 (19.3 %)     23 (29.4 %)
        24 (7.7 %)      25 (100.0 %)    26 (35.1 %)     27 (12.5 %)
        28 (23.2 %)     29 (6.0 %)      30 (62.3 %)     31 (36.6 %)
        32 (24.4 %)     33 (14.5 %)     34 (2.9 %)      35 (3.3 %)
        36 (75.4 %)     37 (100.0 %)    38 (40.3 %)     39 (12.5 %)
        40 (12.0 %)     41 (20.4 %)     42 (10.3 %)     43 (8.9 %)
        44 (31.5 %)     45 (14.8 %)     46 (30.7 %)     47 (5.2 %)
        Total: 1479.9%
Initial condition solution time: CPU = 2.224 ms, elapsed = 2.22683 ms.
Intrinsic tran analysis time:    CPU = 360.899 ms, elapsed = 362.059 ms.
Total time required for tran analysis `tran': CPU = 365.507 ms, elapsed = 367.295 ms, util. = 99.5%.
Time accumulated: CPU = 4.64134 s, elapsed = 5.31073 s.
Peak resident memory used = 213 Mbytes.


Notice from spectre during transient analysis `tran', during Monte Carlo analysis `mc1'.
    34 warnings suppressed.

finalTimeOP: writing operating point information to rawfile.

Opening the PSF file ../psf/mc1_separate/085/finalTimeOP.info ...
modelParameter: writing model parameter values to rawfile.

Opening the PSF file ../psf/mc1_separate/085/modelParameter.info ...
element: writing instance parameter values to rawfile.

Opening the PSF file ../psf/mc1_separate/085/element.info ...
outputParameter: writing output parameter values to rawfile.

Opening the PSF file ../psf/mc1_separate/085/outputParameter.info ...
designParamVals: writing netlist parameters to rawfile.

Opening the PSFASCII file ../psf/mc1_separate/085/designParamVals.info ...
primitives: writing primitives to rawfile.

Opening the PSFASCII file ../psf/mc1_separate/085/primitives.info.primitives ...
subckts: writing subcircuits to rawfile.

Opening the PSFASCII file ../psf/mc1_separate/085/subckts.info.subckts ...
    mc1: iteration = 85          (37.5 %), step = 1            (4.17 %)
86  41.67% 

*****************************************************************************************
* 
* INFO: AMS_processOption = C35B4C3
* 
* INFO: Valid Modules  PIP VG5 HIRES
* 
*****************************************************************************************


Notice from spectre during Monte Carlo analysis `mc1'.
    V8: `period' has the unusually large value of 100 s.


***********************************************
Transient Analysis `tran': time = (0 s -> 50 s)
***********************************************

Opening the PSF file ../psf/mc1_separate/086/tran.tran.tran ...

Warning from spectre during check, during IC analysis, during transient analysis `tran', during Monte Carlo analysis `mc1'.
    WARNING (CMI-2943): Parameter checks have been ignored because the valid value for parameter 'trise' could not be found in 'C1'.
    WARNING (CMI-2943): Parameter checks have been ignored because the valid value for parameter 'trise' could not be found in 'I0.R2.CM'.
    WARNING (CMI-2943): Parameter checks have been ignored because the valid value for parameter 'trise' could not be found in 'I0.R2.CS1'.
    WARNING (CMI-2943): Parameter checks have been ignored because the valid value for parameter 'trise' could not be found in 'I0.R2.CS0'.
    WARNING (CMI-2943): Parameter checks have been ignored because the valid value for parameter 'trise' could not be found in 'I0.C8<3>.C1'.
        Further occurrences of this warning will be suppressed.

Convergence achieved in 12 iterations.
DC simulation time: CPU = 2.319 ms, elapsed = 2.31886 ms.
Important parameter values:
    start = 0 s
    outputstart = 0 s
    stop = 50 s
    step = 50 ms
    maxstep = 500 ms
    ic = all
    useprevic = no
    skipdc = no
    reltol = 10e-06
    abstol(V) = 1 uV
    abstol(I) = 1 pA
    temp = 27 C
    tnom = 27 C
    tempeffects = all
[...]
    WARNING (CMI-2943): Parameter checks have been ignored because the valid value for parameter 'trise' could not be found in 'C1'.
    WARNING (CMI-2943): Parameter checks have been ignored because the valid value for parameter 'trise' could not be found in 'I0.R2.CM'.
    WARNING (CMI-2943): Parameter checks have been ignored because the valid value for parameter 'trise' could not be found in 'I0.R2.CS1'.
    WARNING (CMI-2943): Parameter checks have been ignored because the valid value for parameter 'trise' could not be found in 'I0.R2.CS0'.
    WARNING (CMI-2943): Parameter checks have been ignored because the valid value for parameter 'trise' could not be found in 'I0.C8<3>.C1'.
        Further occurrences of this warning will be suppressed.

Convergence achieved in 12 iterations.
DC simulation time: CPU = 2.001 ms, elapsed = 2.00701 ms.
Important parameter values:
    start = 0 s
    outputstart = 0 s
    stop = 50 s
    step = 50 ms
    maxstep = 500 ms
    ic = all
    useprevic = no
    skipdc = no
    reltol = 10e-06
    abstol(V) = 1 uV
    abstol(I) = 1 pA
    temp = 27 C
    tnom = 27 C
    tempeffects = all
    errpreset = conservative
    method = gear2only
    lteratio = 10
    relref = alllocal
    cmin = 0 F
    gmin = 1 pS
    rabsshort = 1 mOhm


Notice from spectre during transient analysis `tran', during Monte Carlo analysis `mc1'.
    Multithreading is disabled due to the size of the design being too small.


Output and IC/nodeset summary:
                 save   8       (current)
                 save   83      (voltage)

    tran: time = 1.28 s      (2.56 %), step = 141.8 ms     (284 m%)
    tran: time = 3.996 s     (7.99 %), step = 408.7 ms     (817 m%)
    tran: time = 6.423 s     (12.8 %), step = 500 ms          (1 %)
    tran: time = 8.923 s     (17.8 %), step = 500 ms          (1 %)
    tran: time = 11.42 s     (22.8 %), step = 500 ms          (1 %)
    tran: time = 13.92 s     (27.8 %), step = 500 ms          (1 %)
    tran: time = 16.42 s     (32.8 %), step = 500 ms          (1 %)
    tran: time = 18.92 s     (37.8 %), step = 500 ms          (1 %)
    tran: time = 21.42 s     (42.8 %), step = 500 ms          (1 %)
    tran: time = 23.92 s     (47.8 %), step = 500 ms          (1 %)
    tran: time = 26.42 s     (52.8 %), step = 500 ms          (1 %)
    tran: time = 28.92 s     (57.8 %), step = 500 ms          (1 %)
    tran: time = 31.42 s     (62.8 %), step = 500 ms          (1 %)
    tran: time = 33.92 s     (67.8 %), step = 500 ms          (1 %)
    tran: time = 36.42 s     (72.8 %), step = 500 ms          (1 %)
    tran: time = 38.92 s     (77.8 %), step = 500 ms          (1 %)
    tran: time = 41.42 s     (82.8 %), step = 500 ms          (1 %)
    tran: time = 43.92 s     (87.8 %), step = 500 ms          (1 %)
    tran: time = 46.42 s     (92.8 %), step = 500 ms          (1 %)
    tran: time = 48.92 s     (97.8 %), step = 500 ms          (1 %)
Number of accepted tran steps =             697

Maximum value achieved for any signal of each quantity: 
V: V(S<0>) = 3.3 V
I: I(V8:p) = 7.063 uA
Maximum value of each quantity, excluding Verilog-A modules or dangling current sources:
V: V(vout_filt) = 3.211 V
I: I(V8:p) = 7.063 uA

~~~~~~~~~~~~~~~~~~~~~~~~~~~~~~~~~
Post-Transient Simulation Summary
~~~~~~~~~~~~~~~~~~~~~~~~~~~~~~~~~
   -   To further speed up simulation, consider
          add ++aps on command line
   -   Non-default settings that could significantly slow down simulation
          errpreset = conservative, default moderate
          reltol = 10e-06, default 100e-06 (conservative)
~~~~~~~~~~~~~~~~~~~~~~~~~~~~~~~~~


During simulation, the CPU load for active processors is :
         0 (8.2 %)       1 (18.9 %)      2 (14.9 %)      3 (19.2 %)
         4 (17.7 %)      5 (10.4 %)      6 (61.4 %)      7 (28.8 %)
         8 (97.0 %)      9 (42.6 %)     10 (44.9 %)     11 (11.7 %)
        12 (20.2 %)     13 (13.1 %)     14 (54.7 %)     15 (30.7 %)
        16 (36.9 %)     17 (27.9 %)     18 (40.2 %)     19 (35.0 %)
        20 (51.3 %)     21 (26.0 %)     22 (31.2 %)     23 (37.9 %)
        24 (14.3 %)     25 (75.1 %)     26 (19.9 %)     27 (8.0 %)
        28 (13.4 %)     29 (5.3 %)      30 (71.9 %)     31 (29.1 %)
        32 (18.6 %)     33 (20.5 %)     34 (29.6 %)     35 (34.0 %)
        36 (50.3 %)     37 (100.0 %)    38 (35.0 %)     39 (22.2 %)
        40 (8.8 %)      41 (17.4 %)     42 (32.5 %)     43 (7.1 %)
        44 (29.8 %)     45 (16.0 %)     46 (24.0 %)     47 (23.2 %)
        Total: 1487.0%
Initial condition solution time: CPU = 2.063 ms, elapsed = 2.06399 ms.
Intrinsic tran analysis time:    CPU = 365.42 ms, elapsed = 366.931 ms.
Total time required for tran analysis `tran': CPU = 369.605 ms, elapsed = 371.591 ms, util. = 99.5%.
Time accumulated: CPU = 9.89261 s, elapsed = 10.7124 s.
Peak resident memory used = 213 Mbytes.


Notice from spectre during transient analysis `tran', during Monte Carlo analysis `mc1'.
    34 warnings suppressed.

finalTimeOP: writing operating point information to rawfile.

Opening the PSF file ../psf/mc1_separate/098/finalTimeOP.info ...
modelParameter: writing model parameter values to rawfile.

Opening the PSF file ../psf/mc1_separate/098/modelParameter.info ...
element: writing instance parameter values to rawfile.

Opening the PSF file ../psf/mc1_separate/098/element.info ...
outputParameter: writing output parameter values to rawfile.

Opening the PSF file ../psf/mc1_separate/098/outputParameter.info ...
designParamVals: writing netlist parameters to rawfile.

Opening the PSFASCII file ../psf/mc1_separate/098/designParamVals.info ...
primitives: writing primitives to rawfile.

Opening the PSFASCII file ../psf/mc1_separate/098/primitives.info.primitives ...
subckts: writing subcircuits to rawfile.

Opening the PSFASCII file ../psf/mc1_separate/098/subckts.info.subckts ...
    mc1: iteration = 98          (91.7 %), step = 1            (4.17 %)
99  95.83% 

*****************************************************************************************
* 
* INFO: AMS_processOption = C35B4C3
* 
* INFO: Valid Modules  PIP VG5 HIRES
* 
*****************************************************************************************


Notice from spectre during Monte Carlo analysis `mc1'.
    V8: `period' has the unusually large value of 100 s.


***********************************************
Transient Analysis `tran': time = (0 s -> 50 s)
***********************************************

Opening the PSF file ../psf/mc1_separate/099/tran.tran.tran ...

Warning from spectre during check, during IC analysis, during transient analysis `tran', during Monte Carlo analysis `mc1'.
    WARNING (CMI-2943): Parameter checks have been ignored because the valid value for parameter 'trise' could not be found in 'C1'.
    WARNING (CMI-2943): Parameter checks have been ignored because the valid value for parameter 'trise' could not be found in 'I0.R2.CM'.
    WARNING (CMI-2943): Parameter checks have been ignored because the valid value for parameter 'trise' could not be found in 'I0.R2.CS1'.
    WARNING (CMI-2943): Parameter checks have been ignored because the valid value for parameter 'trise' could not be found in 'I0.R2.CS0'.
    WARNING (CMI-2943): Parameter checks have been ignored because the valid value for parameter 'trise' could not be found in 'I0.C8<3>.C1'.
        Further occurrences of this warning will be suppressed.

Convergence achieved in 12 iterations.
DC simulation time: CPU = 2.396 ms, elapsed = 2.39706 ms.
Important parameter values:
    start = 0 s
    outputstart = 0 s
    stop = 50 s
    step = 50 ms
    maxstep = 500 ms
    ic = all
    useprevic = no
    skipdc = no
    reltol = 10e-06
    abstol(V) = 1 uV
    abstol(I) = 1 pA
    temp = 27 C
    tnom = 27 C
    tempeffects = all
    errpreset = conservative
    method = gear2only
    lteratio = 10
    relref = alllocal
    cmin = 0 F
    gmin = 1 pS
    rabsshort = 1 mOhm


Notice from spectre during transient analysis `tran', during Monte Carlo analysis `mc1'.
    Multithreading is disabled due to the size of the design being too small.


Output and IC/nodeset summary:
                 save   8       (current)
                 save   83      (voltage)

    tran: time = 1.39 s      (2.78 %), step = 156.2 ms     (312 m%)
    tran: time = 3.897 s     (7.79 %), step = 393.7 ms     (787 m%)
    tran: time = 6.263 s     (12.5 %), step = 500 ms          (1 %)
    tran: time = 8.763 s     (17.5 %), step = 500 ms          (1 %)
    tran: time = 11.26 s     (22.5 %), step = 500 ms          (1 %)
    tran: time = 13.76 s     (27.5 %), step = 500 ms          (1 %)
    tran: time = 16.26 s     (32.5 %), step = 500 ms          (1 %)
    tran: time = 18.76 s     (37.5 %), step = 500 ms          (1 %)
    tran: time = 21.26 s     (42.5 %), step = 500 ms          (1 %)
    tran: time = 23.76 s     (47.5 %), step = 500 ms          (1 %)
    tran: time = 26.26 s     (52.5 %), step = 500 ms          (1 %)
    tran: time = 28.76 s     (57.5 %), step = 500 ms          (1 %)
    tran: time = 31.26 s     (62.5 %), step = 500 ms          (1 %)
    tran: time = 33.76 s     (67.5 %), step = 500 ms          (1 %)
    tran: time = 36.26 s     (72.5 %), step = 500 ms          (1 %)
    tran: time = 38.76 s     (77.5 %), step = 500 ms          (1 %)
    tran: time = 41.26 s     (82.5 %), step = 500 ms          (1 %)
    tran: time = 43.76 s     (87.5 %), step = 500 ms          (1 %)
    tran: time = 46.26 s     (92.5 %), step = 500 ms          (1 %)
    tran: time = 48.76 s     (97.5 %), step = 500 ms          (1 %)
Number of accepted tran steps =             700

Maximum value achieved for any signal of each quantity: 
V: V(S<0>) = 3.3 V
I: I(V8:p) = 6.67 uA
Maximum value of each quantity, excluding Verilog-A modules or dangling current sources:
V: V(vout_filt) = 3.279 V
I: I(V8:p) = 6.67 uA

~~~~~~~~~~~~~~~~~~~~~~~~~~~~~~~~~
Post-Transient Simulation Summary
~~~~~~~~~~~~~~~~~~~~~~~~~~~~~~~~~
   -   To further speed up simulation, consider
          add ++aps on command line
   -   Non-default settings that could significantly slow down simulation
          errpreset = conservative, default moderate
          reltol = 10e-06, default 100e-06 (conservative)
~~~~~~~~~~~~~~~~~~~~~~~~~~~~~~~~~


During simulation, the CPU load for active processors is :
         0 (7.9 %)       1 (18.2 %)      2 (14.6 %)      3 (18.6 %)
         4 (17.1 %)      5 (10.1 %)      6 (59.2 %)      7 (31.6 %)
         8 (97.1 %)      9 (41.0 %)     10 (47.0 %)     11 (14.2 %)
        12 (19.8 %)     13 (16.2 %)     14 (56.1 %)     15 (29.9 %)
        16 (39.3 %)     17 (27.4 %)     18 (38.8 %)     19 (33.9 %)
        20 (49.5 %)     21 (25.5 %)     22 (30.1 %)     23 (36.7 %)
        24 (13.7 %)     25 (73.8 %)     26 (19.3 %)     27 (7.9 %)
        28 (13.1 %)     29 (5.2 %)      30 (69.3 %)     31 (28.2 %)
        32 (18.2 %)     33 (23.6 %)     34 (30.7 %)     35 (36.6 %)
        36 (48.9 %)     37 (100.0 %)    38 (35.7 %)     39 (22.2 %)
        40 (8.5 %)      41 (16.8 %)     42 (31.7 %)     43 (7.6 %)
        44 (30.7 %)     45 (15.9 %)     46 (26.5 %)     47 (22.9 %)
        Total: 1486.9%
Initial condition solution time: CPU = 2.435 ms, elapsed = 2.43711 ms.
Intrinsic tran analysis time:    CPU = 368.646 ms, elapsed = 369.697 ms.
Total time required for tran analysis `tran': CPU = 373.507 ms, elapsed = 375.264 ms, util. = 99.5%.
Time accumulated: CPU = 10.3046 s, elapsed = 11.1366 s.
Peak resident memory used = 213 Mbytes.


Notice from spectre during transient analysis `tran', during Monte Carlo analysis `mc1'.
    34 warnings suppressed.

finalTimeOP: writing operating point information to rawfile.

Opening the PSF file ../psf/mc1_separate/099/finalTimeOP.info ...
modelParameter: writing model parameter values to rawfile.

Opening the PSF file ../psf/mc1_separate/099/modelParameter.info ...
element: writing instance parameter values to rawfile.

Opening the PSF file ../psf/mc1_separate/099/element.info ...
outputParameter: writing output parameter values to rawfile.

Opening the PSF file ../psf/mc1_separate/099/outputParameter.info ...
designParamVals: writing netlist parameters to rawfile.

Opening the PSFASCII file ../psf/mc1_separate/099/designParamVals.info ...
primitives: writing primitives to rawfile.

Opening the PSFASCII file ../psf/mc1_separate/099/primitives.info.primitives ...
subckts: writing subcircuits to rawfile.

Opening the PSFASCII file ../psf/mc1_separate/099/subckts.info.subckts ...
    mc1: iteration = 99          (95.8 %), step = 1            (4.17 %)
100 100.00% 

*****************************************************************************************
* 
* INFO: AMS_processOption = C35B4C3
* 
* INFO: Valid Modules  PIP VG5 HIRES
* 
*****************************************************************************************


Notice from spectre during Monte Carlo analysis `mc1'.
    V8: `period' has the unusually large value of 100 s.


***********************************************
Transient Analysis `tran': time = (0 s -> 50 s)
***********************************************

Opening the PSF file ../psf/mc1_separate/100/tran.tran.tran ...

Warning from spectre during check, during IC analysis, during transient analysis `tran', during Monte Carlo analysis `mc1'.
    WARNING (CMI-2943): Parameter checks have been ignored because the valid value for parameter 'trise' could not be found in 'C1'.
    WARNING (CMI-2943): Parameter checks have been ignored because the valid value for parameter 'trise' could not be found in 'I0.R2.CM'.
    WARNING (CMI-2943): Parameter checks have been ignored because the valid value for parameter 'trise' could not be found in 'I0.R2.CS1'.
    WARNING (CMI-2943): Parameter checks have been ignored because the valid value for parameter 'trise' could not be found in 'I0.R2.CS0'.
    WARNING (CMI-2943): Parameter checks have been ignored because the valid value for parameter 'trise' could not be found in 'I0.C8<3>.C1'.
        Further occurrences of this warning will be suppressed.

Convergence achieved in 12 iterations.
DC simulation time: CPU = 2.192 ms, elapsed = 2.19297 ms.
Important parameter values:
    start = 0 s
    outputstart = 0 s
    stop = 50 s
    step = 50 ms
    maxstep = 500 ms
    ic = all
    useprevic = no
    skipdc = no
    reltol = 10e-06
    abstol(V) = 1 uV
    abstol(I) = 1 pA
    temp = 27 C
    tnom = 27 C
    tempeffects = all
    errpreset = conservative
    method = gear2only
    lteratio = 10
    relref = alllocal
    cmin = 0 F
    gmin = 1 pS
    rabsshort = 1 mOhm


Notice from spectre during transient analysis `tran', during Monte Carlo analysis `mc1'.
    Multithreading is disabled due to the size of the design being too small.


Output and IC/nodeset summary:
                 save   8       (current)
                 save   83      (voltage)

    tran: time = 1.303 s     (2.61 %), step = 147.5 ms     (295 m%)
    tran: time = 4.154 s     (8.31 %), step = 417.2 ms     (834 m%)
    tran: time = 6.574 s     (13.1 %), step = 500 ms          (1 %)
    tran: time = 9.074 s     (18.1 %), step = 500 ms          (1 %)
    tran: time = 11.57 s     (23.1 %), step = 500 ms          (1 %)
    tran: time = 14.07 s     (28.1 %), step = 500 ms          (1 %)
    tran: time = 16.57 s     (33.1 %), step = 500 ms          (1 %)
    tran: time = 19.07 s     (38.1 %), step = 500 ms          (1 %)
    tran: time = 21.57 s     (43.1 %), step = 500 ms          (1 %)
    tran: time = 24.07 s     (48.1 %), step = 500 ms          (1 %)
    tran: time = 26.57 s     (53.1 %), step = 500 ms          (1 %)
    tran: time = 29.07 s     (58.1 %), step = 500 ms          (1 %)
    tran: time = 31.57 s     (63.1 %), step = 500 ms          (1 %)
    tran: time = 34.07 s     (68.1 %), step = 500 ms          (1 %)
    tran: time = 36.57 s     (73.1 %), step = 500 ms          (1 %)
    tran: time = 39.07 s     (78.1 %), step = 500 ms          (1 %)
    tran: time = 41.57 s     (83.1 %), step = 500 ms          (1 %)
    tran: time = 44.07 s     (88.1 %), step = 500 ms          (1 %)
    tran: time = 46.57 s     (93.1 %), step = 500 ms          (1 %)
    tran: time = 49.07 s     (98.1 %), step = 500 ms          (1 %)
Number of accepted tran steps =             709

Maximum value achieved for any signal of each quantity: 
V: V(vout) = 3.3 V
I: I(V8:p) = 6.487 uA

~~~~~~~~~~~~~~~~~~~~~~~~~~~~~~~~~
Post-Transient Simulation Summary
~~~~~~~~~~~~~~~~~~~~~~~~~~~~~~~~~
   -   To further speed up simulation, consider
          add ++aps on command line
   -   Non-default settings that could significantly slow down simulation
          errpreset = conservative, default moderate
          reltol = 10e-06, default 100e-06 (conservative)
~~~~~~~~~~~~~~~~~~~~~~~~~~~~~~~~~


During simulation, the CPU load for active processors is :
         0 (7.9 %)       1 (18.3 %)      2 (14.3 %)      3 (18.3 %)
         4 (16.6 %)      5 (9.9 %)       6 (57.6 %)      7 (32.9 %)
         8 (97.2 %)      9 (40.8 %)     10 (49.0 %)     11 (15.9 %)
        12 (19.5 %)     13 (18.6 %)     14 (57.7 %)     15 (29.2 %)
        16 (38.3 %)     17 (29.8 %)     18 (37.6 %)     19 (32.8 %)
        20 (47.8 %)     21 (24.6 %)     22 (29.5 %)     23 (35.4 %)
        24 (13.4 %)     25 (74.5 %)     26 (18.9 %)     27 (7.6 %)
        28 (12.7 %)     29 (5.0 %)      30 (66.9 %)     31 (27.2 %)
        32 (17.7 %)     33 (26.4 %)     34 (29.6 %)     35 (38.9 %)
        36 (47.7 %)     37 (100.0 %)    38 (34.8 %)     39 (22.1 %)
        40 (8.4 %)      41 (16.3 %)     42 (30.6 %)     43 (7.6 %)
        44 (33.2 %)     45 (16.0 %)     46 (29.0 %)     47 (22.1 %)
        Total: 1486.1%
Initial condition solution time: CPU = 2.246 ms, elapsed = 2.2471 ms.
Intrinsic tran analysis time:    CPU = 369.472 ms, elapsed = 370.487 ms.
Total time required for tran analysis `tran': CPU = 373.965 ms, elapsed = 375.511 ms, util. = 99.6%.
Time accumulated: CPU = 10.717 s, elapsed = 11.5597 s.
Peak resident memory used = 213 Mbytes.


Notice from spectre during transient analysis `tran', during Monte Carlo analysis `mc1'.
    34 warnings suppressed.

finalTimeOP: writing operating point information to rawfile.

Opening the PSF file ../psf/mc1_separate/100/finalTimeOP.info ...
modelParameter: writing model parameter values to rawfile.

Opening the PSF file ../psf/mc1_separate/100/modelParameter.info ...
element: writing instance parameter values to rawfile.

Opening the PSF file ../psf/mc1_separate/100/element.info ...
outputParameter: writing output parameter values to rawfile.

Opening the PSF file ../psf/mc1_separate/100/outputParameter.info ...
designParamVals: writing netlist parameters to rawfile.

Opening the PSFASCII file ../psf/mc1_separate/100/designParamVals.info ...
primitives: writing primitives to rawfile.

Opening the PSFASCII file ../psf/mc1_separate/100/primitives.info.primitives ...
subckts: writing subcircuits to rawfile.

Opening the PSFASCII file ../psf/mc1_separate/100/subckts.info.subckts ...
    mc1: iteration = 100          (100 %), step = 1            (4.17 %)
Total time required for montecarlo analysis `mc1': CPU = 10.288 s, elapsed = 10.6067 s, util. = 97%.
Time accumulated: CPU = 10.7411 s, elapsed = 11.5942 s.
Peak resident memory used = 213 Mbytes.

Licensing Information:
Lic Summary:
[09:47:39.110522] Cdslmd servers:3000@lic08.ug.kth.se:29000@lic06.ug.kth.se
[09:47:39.634857] Feature usage summary:
[09:47:39.634859] Virtuoso_Multi_mode_Simulation


Aggregate audit (9:47:39 AM, Thur Apr 16, 2026):
Time used: CPU = 10.8 s, elapsed = 11.6 s, util. = 92.6%.
Time spent in licensing: elapsed = 46.6 ms.
Peak memory used = 213 Mbytes.
Simulation started at: 9:47:28 AM, Thur Apr 16, 2026, ended at: 9:47:39 AM, Thur Apr 16, 2026, with elapsed time (wall clock): 11.6 s.
spectre completes with 0 errors, 142 warnings, and 83 notices.
