
Spectre (R) Circuit Simulator
Version 24.1.0.288.isr5 64bit -- 3 Apr 2025
Copyright (C) 1989-2025 Cadence Design Systems, Inc. All rights reserved worldwide. Cadence and Spectre are registered trademarks of Cadence Design Systems, Inc. All others are the property of their respective holders.

Includes RSA BSAFE(R) Cryptographic or Security Protocol Software from RSA Security, Inc.

User: davidevi   Host: il2244vt26_davidevi   HostID: 11AC2C00   PID: 1018134
Memory  available: 3.0329 TB  physical: 3.2467 TB
Linux   : Rocky Linux release 8.10 (Green Obsidian)
CPU Type: Intel(R) Xeon(R) CPU E7-8857 v2 @ 3.00GHz
        Socket: Processors [Frequency]
        0:       0 [3500.0],  1 [3600.0],  2 [1200.0],  3 [1200.0],  4 [1200.0]
                 5 [1200.0],  6 [2999.9],  7 [1200.0],  8 [1200.0],  9 [3600.0]
                10 [1200.0], 11 [1200.0]
        1:      12 [1200.0], 13 [1200.0], 14 [1200.0], 15 [1200.0], 16 [2999.9]
                17 [1700.0], 18 [1200.0], 19 [1200.0], 20 [1200.0], 21 [1200.0]
                22 [1200.0], 23 [2999.9]
        2:      24 [1200.0], 25 [1200.0], 26 [3200.0], 27 [3100.0], 28 [2981.4]
                29 [2906.5], 30 [3300.0], 31 [1200.0], 32 [2900.0], 33 [2500.0]
                34 [2800.0], 35 [2925.3]
        3:      36 [2999.9], 37 [2999.9], 38 [1200.0], 39 [3600.0], 40 [1300.0]
                41 [2999.9], 42 [2700.0], 43 [1200.0], 44 [2800.0], 45 [2700.0]
                46 [2999.9], 47 [1200.0]
        
System load averages (1min, 5min, 15min) : 26.2 %, 23.1 %, 24.9 %
HPC is enabled


Simulating `input.scs' on il2244vt26_davidevi at 4:43:45 PM, Wed Apr 15, 2026 (process id: 1018134).
Current working directory: /home/davidevi/Desktop/myproject/Sim/VGA/VGA_1_wakeup_tb/adexl/results/data/Interactive.107/16/wakeup/netlist
Command line:
    /opt/tools/cadence/installs/SPECTRE241/tools/bin/spectre -64  \
        input.scs +escchars +log ../psf/spectre.out -format psfbin  \
        +rtsf -raw ../psf +aps +mt +lqtimeout 900 -maxw 5 -maxn 5  \
        +param /opt/pdk/ams/410/spectre/ams_range.lmts -env ade  \
        -ahdllibdir  \
        /home/davidevi/Desktop/myproject/Sim/VGA/VGA_1_wakeup_tb/adexl/results/data/Interactive.107/sharedData/Job456/ahdl/input.ahdlSimDB  \
        +logstatus  \
        +adespetkn=0001089D13A302B663E41FB550AF0DF415A679A322D5069144BF588C12F604E07EF416DC01A319B562BB63D35DD61B9F45A3089C4BDE409E07AD58D949EB4F925BDD79D15D9175FF34986BDD0AF002BA50FD7FD707E002A700AC1C801BFD45E00EAD79D128F874D3349879D118F874D33498100ED8B8B4935D47000036D0

Simulation Id: oLgkBx354MjRNMoE
Licensing Information:
[16:43:45.121786] Configured Lic search path (24.01-s002): 3000@lic08.ug.kth.se:29000@lic06.ug.kth.se

Licensing Information:
[16:43:45.209123] Periodic Lic check successful

Loading /opt/tools/cadence/installs/SPECTRE241/tools.lnx86/cmi/lib/64bit/5.0/libinfineon_sh.so ...
Loading /opt/tools/cadence/installs/SPECTRE241/tools.lnx86/cmi/lib/64bit/5.0/libphilips_I_sh.so ...
Loading /opt/tools/cadence/installs/SPECTRE241/tools.lnx86/cmi/lib/64bit/5.0/libphilips_sh.so ...
Loading /opt/tools/cadence/installs/SPECTRE241/tools.lnx86/cmi/lib/64bit/5.0/libsparam_sh.so ...
Loading /opt/tools/cadence/installs/SPECTRE241/tools.lnx86/cmi/lib/64bit/5.0/libstmodels_sh.so ...

Warning from spectre.
    WARNING (SPECTRE-691): This CPU processor does not support x86 advanced vector extensions instructions. This may affect math operations and slow down the simulation.

Reading file:  /home/davidevi/Desktop/myproject/Sim/VGA/VGA_1_wakeup_tb/adexl/results/data/Interactive.107/16/wakeup/netlist/input.scs
Reading file:  /opt/pdk/ams/410/spectre/ams_range.lmts

Warning from spectre during read of parameter soft limits file `/opt/pdk/ams/410/spectre/ams_range.lmts', during circuit read-in.
    WARNING (SPECTRE-8360): line 1511: `ac' is an undefined primitive device.
    WARNING (SPECTRE-8360): line 1512: `ac' is an undefined primitive device.
    WARNING (SPECTRE-8360): line 1513: `ac' is an undefined primitive device.
    WARNING (SPECTRE-8360): line 1514: `ac' is an undefined primitive device.
    WARNING (SPECTRE-8360): line 1515: `ac' is an undefined primitive device.
        Further occurrences of this warning will be suppressed.

Reading file:  /opt/tools/cadence/installs/SPECTRE241/tools.lnx86/spectre/etc/configs/spectre.cfg
Reading file:  /opt/pdk/ams/410/spectre/c35/soac/soac.scs
Reading file:  /opt/pdk/ams/410/spectre/c35/soac/processOption.scs
Reading file:  /opt/pdk/ams/410/spectre/c35/soac/process.scs
Reading file:  /opt/pdk/ams/410/spectre/c35/soac/soac.va

Warning from spectre during AHDL read-in.
    WARNING (VACOMP-2435): The environment variable CDS_AHDLCMI_ENABLE is no longer supported. Therefore, the simulator will use the default compiled C code flow.

Reading link:  /opt/tools/cadence/installs/SPECTRE241/tools.lnx86/spectre/etc/ahdl/constants.h
Reading file:  /opt/tools/cadence/installs/SPECTRE241/tools.lnx86/spectre/etc/ahdl/constants.vams
Reading link:  /opt/tools/cadence/installs/SPECTRE241/tools.lnx86/spectre/etc/ahdl/discipline.h
Reading file:  /opt/tools/cadence/installs/SPECTRE241/tools.lnx86/spectre/etc/ahdl/disciplines.vams
Reading file:  /opt/pdk/ams/410/spectre/c35/processOption/C35B4C3.scs
Reading file:  /opt/pdk/ams/410/spectre/c35/soac/cmos53.scs
Reading file:  /opt/pdk/ams/410/spectre/c35/soac/res.scs
Reading file:  /opt/pdk/ams/410/spectre/c35/soac/cap.scs
Reading file:  /opt/pdk/ams/410/spectre/c35/soac/bip.scs
Reading file:  /opt/pdk/ams/410/spectre/c35/soac/ind.scs
Reading file:  /opt/pdk/ams/410/spectre/c35/soac/esddiode.scs
Time for NDB Parsing: CPU = 182.649 ms, elapsed = 311.595 ms.
Time accumulated: CPU = 396.801 ms, elapsed = 311.598 ms.
Peak resident memory used = 175 Mbytes.

Existing shared object for module modn_ahdl is up to date.
Installed compiled interface for modn_ahdl.
Existing shared object for module modp_ahdl is up to date.
Installed compiled interface for modp_ahdl.
Existing shared object for module cpoly_ahdl is up to date.
Installed compiled interface for cpoly_ahdl.
Existing shared object for module rpolyh_ahdl is up to date.
Installed compiled interface for rpolyh_ahdl.
Existing shared object for module bsource_19b458 is up to date.
Installed compiled interface for bsource_19b458.
Time for Elaboration: CPU = 44.998 ms, elapsed = 46.4559 ms.
Time accumulated: CPU = 441.964 ms, elapsed = 358.219 ms.
Peak resident memory used = 188 Mbytes.


Notice from spectre during hierarchy flattening.
    The value 'psf' specified for the 'checklimitdest' option will no longer be supported in future releases. Use 'spectre -h' to see other recommended values for the 'checklimitdest' option.


*****************************************************************************************
* 
* INFO: AMS_processOption = C35B4C3
* 
* INFO: Valid Modules  PIP VG5 HIRES
* 
*****************************************************************************************


Notice from spectre during hierarchy flattening.
    V8: `period' has the unusually large value of 100 s.


Time for EDB Visiting: CPU = 7.818 ms, elapsed = 7.81798 ms.
Time accumulated: CPU = 449.922 ms, elapsed = 366.175 ms.
Peak resident memory used = 190 Mbytes.

Loading /opt/tools/cadence/installs/SPECTRE241/tools.lnx86/mdl/lib/64bit/libSpectreEH_sh.so ...

Warning from spectre during initial setup.
    WARNING (SPECTRE-16460): SOAC_cvarm_vspsub:Specified subcircuit master `cvarm' was not found.
    WARNING (SPECTRE-16462): SOAC_cvarm_vspsub:Error in specification of subcircuit master. Assert is ignored.
    WARNING (SPECTRE-16460): SOAC_cvarm_vbs:Specified subcircuit master `cvarm' was not found.
    WARNING (SPECTRE-16462): SOAC_cvarm_vbs:Error in specification of subcircuit master. Assert is ignored.
    WARNING (SPECTRE-16460): SOAC_cvarm_vgb:Specified subcircuit master `cvarm' was not found.
    WARNING (SPECTRE-16462): SOAC_cvarm_vgb:Error in specification of subcircuit master. Assert is ignored.
    WARNING (SPECTRE-16460): SOAC_cvart_vspsub:Specified subcircuit master `cvart' was not found.
    WARNING (SPECTRE-16462): SOAC_cvart_vspsub:Error in specification of subcircuit master. Assert is ignored.
    WARNING (SPECTRE-16460): SOAC_cvart_vbs:Specified subcircuit master `cvart' was not found.
        Further occurrences of this warning will be suppressed.
    WARNING (SPECTRE-16462): SOAC_cvart_vbs:Error in specification of subcircuit master. Assert is ignored.
        Further occurrences of this warning will be suppressed.
Notice from spectre during topology check.
    Only one connection to the following 43 nodes:
        I0.MN6.psub!
        I0.MN5.psub!
        I0.MN4.psub!
        I0.MN3.psub!
        I0.MN2.psub!
        Further occurrences of this notice will be suppressed.
Notice from spectre during initial setup.
    Multithreading is disabled due to the size of the design being too small.


Netlist title:
        // Point Netlist Generated on: Apr 15 16:43:44 2026


Global user options:
         psfversion = 1.4.0
            vabstol = 1e-06
            iabstol = 1e-12
               temp = -40
           homotopy = 5
              limit = delta
         compatible = spice2
               gmin = 1e-12
             rforce = 1
           maxnotes = 5
           maxwarns = 5
             digits = 5
               cols = 80
             pivrel = 0.001
           sensfile = ../psf/sens.output
     checklimitdest = psf
     enable_pre_ver = yes
      ignorezerovar = yes
               save = allpub
             reltol = 0.0001
               tnom = 27
             scalem = 1
              scale = 1

Scoped user options:

Circuit inventory:
              nodes 88
            bsim3v3 35    
     bsource_19b458 2     
          capacitor 38    
         cpoly_ahdl 17    
            isource 1     
          modn_ahdl 19    
          modp_ahdl 16    
           resistor 1     
        rpolyh_ahdl 2     
            vsource 8     

Analysis and control statement inventory:
               info 7     
               tran 1     

Output statements:
             .probe 0     
           .measure 0     
               save 0     

Design checks inventory:
          paramtest 55    
             assert 175   


Notice from spectre during initial setup.
    APS enabled.
    1 notice suppressed.
    72 warnings suppressed.

Time for parsing: CPU = 18.58 ms, elapsed = 622.286 ms.
Time accumulated: CPU = 468.628 ms, elapsed = 988.587 ms.
Peak resident memory used = 196 Mbytes.

~~~~~~~~~~~~~~~~~~~~~~
Pre-Simulation Summary
~~~~~~~~~~~~~~~~~~~~~~
   -   (APS) Multi-threading. The recommended number of threads is 1, consider adding +mt=1 on command line.
~~~~~~~~~~~~~~~~~~~~~~

Notice from spectre during transient analysis `tran'.
    No checklimit analysis defined for asserts. A default checklimit analysis 'SpectreChecklimitAnal' has been created with all asserts enabled.


***********************************************
Transient Analysis `tran': time = (0 s -> 50 s)
***********************************************

Warning from spectre during check, during IC analysis, during transient analysis `tran'.
    WARNING (CMI-2943): Parameter checks have been ignored because the valid value for parameter 'trise' could not be found in 'C1'.
    WARNING (CMI-2943): Parameter checks have been ignored because the valid value for parameter 'trise' could not be found in 'I0.R2.CM'.
    WARNING (CMI-2943): Parameter checks have been ignored because the valid value for parameter 'trise' could not be found in 'I0.R2.CS1'.
    WARNING (CMI-2943): Parameter checks have been ignored because the valid value for parameter 'trise' could not be found in 'I0.R2.CS0'.
    WARNING (CMI-2943): Parameter checks have been ignored because the valid value for parameter 'trise' could not be found in 'I0.C3.C1'.
        Further occurrences of this warning will be suppressed.

Convergence achieved in 12 iterations.
DC simulation time: CPU = 2.949 ms, elapsed = 2.949 ms.

Opening the PSF file ../psf/tran.tran.tran ...
Important parameter values:
    start = 0 s
    outputstart = 0 s
    stop = 50 s
    step = 50 ms
    maxstep = 500 ms
    ic = all
    useprevic = no
    skipdc = no
    reltol = 10e-06
    abstol(V) = 1 uV
    abstol(I) = 1 pA
    temp = -40 C
    tnom = 27 C
    tempeffects = all
    errpreset = conservative
    method = gear2only
    lteratio = 10
    relref = alllocal
    cmin = 0 F
    gmin = 1 pS
    rabsshort = 1 mOhm


Notice from spectre during transient analysis `tran'.
    Multithreading is disabled due to the size of the design being too small.


Output and IC/nodeset summary:
                 save   8       (current)
                 save   87      (voltage)

    tran: time = 1.297 s     (2.59 %), step = 97.77 ms     (196 m%)
    tran: time = 3.959 s     (7.92 %), step = 385.9 ms     (772 m%)
    tran: time = 6.361 s     (12.7 %), step = 500 ms          (1 %)
    tran: time = 8.861 s     (17.7 %), step = 500 ms          (1 %)
    tran: time = 11.36 s     (22.7 %), step = 500 ms          (1 %)
    tran: time = 13.86 s     (27.7 %), step = 500 ms          (1 %)
    tran: time = 16.36 s     (32.7 %), step = 500 ms          (1 %)
    tran: time = 18.86 s     (37.7 %), step = 500 ms          (1 %)
    tran: time = 21.36 s     (42.7 %), step = 500 ms          (1 %)
    tran: time = 23.86 s     (47.7 %), step = 500 ms          (1 %)
    tran: time = 26.36 s     (52.7 %), step = 500 ms          (1 %)
    tran: time = 28.86 s     (57.7 %), step = 500 ms          (1 %)
    tran: time = 31.36 s     (62.7 %), step = 500 ms          (1 %)
    tran: time = 33.86 s     (67.7 %), step = 500 ms          (1 %)
    tran: time = 36.36 s     (72.7 %), step = 500 ms          (1 %)
    tran: time = 38.86 s     (77.7 %), step = 500 ms          (1 %)
    tran: time = 41.36 s     (82.7 %), step = 500 ms          (1 %)
    tran: time = 43.86 s     (87.7 %), step = 500 ms          (1 %)
    tran: time = 46.36 s     (92.7 %), step = 500 ms          (1 %)
    tran: time = 48.86 s     (97.7 %), step = 500 ms          (1 %)
Number of accepted tran steps =             737

Maximum value achieved for any signal of each quantity: 
V: V(vout) = 3.3 V
I: I(V8:p) = 6.479 uA

~~~~~~~~~~~~~~~~~~~~~~~~~~~~~~~~~
Post-Transient Simulation Summary
~~~~~~~~~~~~~~~~~~~~~~~~~~~~~~~~~
   -   To further speed up simulation, consider
          add ++aps on command line
   -   Non-default settings that could significantly slow down simulation
          errpreset = conservative, default moderate
          reltol = 10e-06, default 100e-06 (conservative)
~~~~~~~~~~~~~~~~~~~~~~~~~~~~~~~~~


During simulation, the CPU load for active processors is :
         0 (4.6 %)       1 (4.5 %)       4 (1.5 %)       6 (100.0 %)
         7 (6.8 %)       8 (3.8 %)       9 (2.3 %)      10 (2.3 %)
        11 (3.7 %)      12 (44.4 %)     13 (6.2 %)      14 (15.0 %)
        15 (3.1 %)      16 (100.0 %)    17 (21.2 %)     18 (3.8 %)
        19 (3.8 %)      20 (8.2 %)      21 (7.6 %)      22 (7.6 %)
        23 (13.6 %)     24 (10.1 %)     25 (5.2 %)      26 (5.3 %)
        27 (7.5 %)      28 (100.0 %)    29 (13.5 %)     30 (34.8 %)
        31 (9.0 %)      32 (32.1 %)     33 (2.3 %)      34 (9.9 %)
        35 (19.8 %)     36 (28.6 %)     37 (14.2 %)     38 (84.4 %)
        39 (41.8 %)     40 (6.8 %)      41 (9.8 %)      42 (3.8 %)
        43 (13.8 %)     44 (3.1 %)      45 (14.5 %)     46 (100.0 %)
        47 (5.3 %)      
        Total: 941.1%
Initial condition solution time: CPU = 3.028 ms, elapsed = 3.02982 ms.
Intrinsic tran analysis time:    CPU = 406.142 ms, elapsed = 408.08 ms.
Total time required for tran analysis `tran': CPU = 492.908 ms, elapsed = 497.898 ms, util. = 99%.
Time accumulated: CPU = 988.025 ms, elapsed = 1.51424 s.
Peak resident memory used = 208 Mbytes.


Notice from spectre.
    12 warnings suppressed.

finalTimeOP: writing operating point information to rawfile.

Opening the PSF file ../psf/finalTimeOP.info ...
modelParameter: writing model parameter values to rawfile.

Opening the PSF file ../psf/modelParameter.info ...
element: writing instance parameter values to rawfile.

Opening the PSF file ../psf/element.info ...
outputParameter: writing output parameter values to rawfile.

Opening the PSF file ../psf/outputParameter.info ...
designParamVals: writing netlist parameters to rawfile.

Opening the PSFASCII file ../psf/designParamVals.info ...
primitives: writing primitives to rawfile.

Opening the PSFASCII file ../psf/primitives.info.primitives ...
subckts: writing subcircuits to rawfile.

Opening the PSFASCII file ../psf/subckts.info.subckts ...
Licensing Information:
Lic Summary:
[16:43:46.096376] Cdslmd servers:3000@lic08.ug.kth.se:29000@lic06.ug.kth.se
[16:43:46.620715] Feature usage summary:
[16:43:46.620715] Virtuoso_Multi_mode_Simulation


Aggregate audit (4:43:46 PM, Wed Apr 15, 2026):
Time used: CPU = 1.03 s, elapsed = 1.57 s, util. = 65.8%.
Time spent in licensing: elapsed = 50.6 ms.
Peak memory used = 209 Mbytes.
Simulation started at: 4:43:45 PM, Wed Apr 15, 2026, ended at: 4:43:46 PM, Wed Apr 15, 2026, with elapsed time (wall clock): 1.57 s.
spectre completes with 0 errors, 22 warnings, and 10 notices.


********* LOG ENDS **************
**                             **
**                             **
********* LOG STARTS ************



Spectre (R) Circuit Simulator
Version 24.1.0.288.isr5 64bit -- 3 Apr 2025
Copyright (C) 1989-2025 Cadence Design Systems, Inc. All rights reserved worldwide. Cadence and Spectre are registered trademarks of Cadence Design Systems, Inc. All others are the property of their respective holders.

Includes RSA BSAFE(R) Cryptographic or Security Protocol Software from RSA Security, Inc.

User: davidevi   Host: il2244vt26_davidevi   HostID: 11AC2C00   PID: 1018011
Memory  available: 3.0331 TB  physical: 3.2467 TB
Linux   : Rocky Linux release 8.10 (Green Obsidian)
CPU Type: Intel(R) Xeon(R) CPU E7-8857 v2 @ 3.00GHz
        Socket: Processors [Frequency]
        0:       0 [3000.0],  1 [1200.0],  2 [2999.9],  3 [2999.9],  4 [1200.0]
                 5 [1200.0],  6 [2999.9],  7 [3600.0],  8 [3600.0],  9 [1200.0]
                10 [2600.0], 11 [1200.0]
        1:      12 [2999.9], 13 [3600.0], 14 [1200.0], 15 [2999.9], 16 [2999.9]
                17 [2700.0], 18 [1200.0], 19 [3600.0], 20 [1200.0], 21 [1200.0]
                22 [1200.0], 23 [1900.0]
        2:      24 [2500.0], 25 [2999.4], 26 [2500.0], 27 [2500.0], 28 [3000.0]
                29 [3600.0], 30 [2900.0], 31 [2999.9], 32 [2900.0], 33 [1400.0]
                34 [2997.3], 35 [3600.0]
        3:      36 [1200.0], 37 [2999.9], 38 [2999.9], 39 [1200.0], 40 [2800.0]
                41 [3500.0], 42 [1200.0], 43 [1200.0], 44 [2500.0], 45 [3600.0]
                46 [2999.9], 47 [2600.0]
        
System load averages (1min, 5min, 15min) : 26.2 %, 23.1 %, 24.9 %
HPC is enabled


Simulating `input.scs' on il2244vt26_davidevi at 4:43:44 PM, Wed Apr 15, 2026 (process id: 1018011).
Current working directory: /home/davidevi/Desktop/myproject/Sim/VGA/VGA_1_wakeup_tb/adexl/results/data/Interactive.107/14/wakeup/netlist
Command line:
    /opt/tools/cadence/installs/SPECTRE241/tools/bin/spectre -64  \
        input.scs +escchars +log ../psf/spectre.out -format psfbin  \
        +rtsf -raw ../psf +aps +mt +lqtimeout 900 -maxw 5 -maxn 5  \
        +param /opt/pdk/ams/410/spectre/ams_range.lmts -env ade  \
        -ahdllibdir  \
        /home/davidevi/Desktop/myproject/Sim/VGA/VGA_1_wakeup_tb/adexl/results/data/Interactive.107/sharedData/Job458/ahdl/input.ahdlSimDB  \
        +logstatus  \
        +adespetkn=0001089D13A302B663E41FB550AF0DF415A679A322D5069144BF588C12F604E07EF416DC01A319B562BB63D30ACB4C8245A359CE25BE11A453DD3AE54EC94F9242DF79D15D9175FF34986BDD0AF002BA50FD7FD707E002A700AC1C821CFF42E20EAF79D118F874D3349879D118F874D33498100ED8C7B4EC5D47000036D3

Simulation Id: 8QX1GZgEewmp5svG
Licensing Information:
[16:43:44.121778] Configured Lic search path (24.01-s002): 3000@lic08.ug.kth.se:29000@lic06.ug.kth.se

Licensing Information:
[16:43:44.238914] Periodic Lic check successful

Loading /opt/tools/cadence/installs/SPECTRE241/tools.lnx86/cmi/lib/64bit/5.0/libinfineon_sh.so ...
Loading /opt/tools/cadence/installs/SPECTRE241/tools.lnx86/cmi/lib/64bit/5.0/libphilips_I_sh.so ...
Loading /opt/tools/cadence/installs/SPECTRE241/tools.lnx86/cmi/lib/64bit/5.0/libphilips_sh.so ...
Loading /opt/tools/cadence/installs/SPECTRE241/tools.lnx86/cmi/lib/64bit/5.0/libsparam_sh.so ...
Loading /opt/tools/cadence/installs/SPECTRE241/tools.lnx86/cmi/lib/64bit/5.0/libstmodels_sh.so ...

Warning from spectre.
    WARNING (SPECTRE-691): This CPU processor does not support x86 advanced vector extensions instructions. This may affect math operations and slow down the simulation.

Reading file:  /home/davidevi/Desktop/myproject/Sim/VGA/VGA_1_wakeup_tb/adexl/results/data/Interactive.107/14/wakeup/netlist/input.scs
Reading file:  /opt/pdk/ams/410/spectre/ams_range.lmts

Warning from spectre during read of parameter soft limits file `/opt/pdk/ams/410/spectre/ams_range.lmts', during circuit read-in.
    WARNING (SPECTRE-8360): line 1511: `ac' is an undefined primitive device.
    WARNING (SPECTRE-8360): line 1512: `ac' is an undefined primitive device.
    WARNING (SPECTRE-8360): line 1513: `ac' is an undefined primitive device.
    WARNING (SPECTRE-8360): line 1514: `ac' is an undefined primitive device.
    WARNING (SPECTRE-8360): line 1515: `ac' is an undefined primitive device.
        Further occurrences of this warning will be suppressed.

Reading file:  /opt/tools/cadence/installs/SPECTRE241/tools.lnx86/spectre/etc/configs/spectre.cfg
Reading file:  /opt/pdk/ams/410/spectre/c35/soac/soac.scs
Reading file:  /opt/pdk/ams/410/spectre/c35/soac/processOption.scs
Reading file:  /opt/pdk/ams/410/spectre/c35/soac/process.scs
Reading file:  /opt/pdk/ams/410/spectre/c35/soac/soac.va

Warning from spectre during AHDL read-in.
    WARNING (VACOMP-2435): The environment variable CDS_AHDLCMI_ENABLE is no longer supported. Therefore, the simulator will use the default compiled C code flow.

Reading link:  /opt/tools/cadence/installs/SPECTRE241/tools.lnx86/spectre/etc/ahdl/constants.h
Reading file:  /opt/tools/cadence/installs/SPECTRE241/tools.lnx86/spectre/etc/ahdl/constants.vams
Reading link:  /opt/tools/cadence/installs/SPECTRE241/tools.lnx86/spectre/etc/ahdl/discipline.h
Reading file:  /opt/tools/cadence/installs/SPECTRE241/tools.lnx86/spectre/etc/ahdl/disciplines.vams
Reading file:  /opt/pdk/ams/410/spectre/c35/processOption/C35B4C3.scs
Reading file:  /opt/pdk/ams/410/spectre/c35/soac/cmos53.scs
Reading file:  /opt/pdk/ams/410/spectre/c35/soac/res.scs
Reading file:  /opt/pdk/ams/410/spectre/c35/soac/cap.scs
Reading file:  /opt/pdk/ams/410/spectre/c35/soac/bip.scs
Reading file:  /opt/pdk/ams/410/spectre/c35/soac/ind.scs
Reading file:  /opt/pdk/ams/410/spectre/c35/soac/esddiode.scs
Time for NDB Parsing: CPU = 171.792 ms, elapsed = 330.481 ms.
Time accumulated: CPU = 376.457 ms, elapsed = 330.484 ms.
Peak resident memory used = 176 Mbytes.

Existing shared object for module modn_ahdl is up to date.
Installed compiled interface for modn_ahdl.
Existing shared object for module modp_ahdl is up to date.
Installed compiled interface for modp_ahdl.
Existing shared object for module cpoly_ahdl is up to date.
Installed compiled interface for cpoly_ahdl.
Existing shared object for module rpolyh_ahdl is up to date.
Installed compiled interface for rpolyh_ahdl.
Existing shared object for module bsource_19b458 is up to date.
Installed compiled interface for bsource_19b458.
Time for Elaboration: CPU = 45.244 ms, elapsed = 47.5171 ms.
Time accumulated: CPU = 421.855 ms, elapsed = 378.155 ms.
Peak resident memory used = 188 Mbytes.


Notice from spectre during hierarchy flattening.
    The value 'psf' specified for the 'checklimitdest' option will no longer be supported in future releases. Use 'spectre -h' to see other recommended values for the 'checklimitdest' option.


*****************************************************************************************
* 
* INFO: AMS_processOption = C35B4C3
* 
* INFO: Valid Modules  PIP VG5 HIRES
* 
*****************************************************************************************


Notice from spectre during hierarchy flattening.
    V8: `period' has the unusually large value of 100 s.


Time for EDB Visiting: CPU = 7.817 ms, elapsed = 7.82394 ms.
Time accumulated: CPU = 429.838 ms, elapsed = 386.144 ms.
Peak resident memory used = 190 Mbytes.

Loading /opt/tools/cadence/installs/SPECTRE241/tools.lnx86/mdl/lib/64bit/libSpectreEH_sh.so ...

Warning from spectre during initial setup.
    WARNING (SPECTRE-16460): SOAC_cvarm_vspsub:Specified subcircuit master `cvarm' was not found.
    WARNING (SPECTRE-16462): SOAC_cvarm_vspsub:Error in specification of subcircuit master. Assert is ignored.
    WARNING (SPECTRE-16460): SOAC_cvarm_vbs:Specified subcircuit master `cvarm' was not found.
    WARNING (SPECTRE-16462): SOAC_cvarm_vbs:Error in specification of subcircuit master. Assert is ignored.
    WARNING (SPECTRE-16460): SOAC_cvarm_vgb:Specified subcircuit master `cvarm' was not found.
    WARNING (SPECTRE-16462): SOAC_cvarm_vgb:Error in specification of subcircuit master. Assert is ignored.
    WARNING (SPECTRE-16460): SOAC_cvart_vspsub:Specified subcircuit master `cvart' was not found.
    WARNING (SPECTRE-16462): SOAC_cvart_vspsub:Error in specification of subcircuit master. Assert is ignored.
    WARNING (SPECTRE-16460): SOAC_cvart_vbs:Specified subcircuit master `cvart' was not found.
        Further occurrences of this warning will be suppressed.
    WARNING (SPECTRE-16462): SOAC_cvart_vbs:Error in specification of subcircuit master. Assert is ignored.
        Further occurrences of this warning will be suppressed.
Notice from spectre during topology check.
    Only one connection to the following 43 nodes:
        I0.MN6.psub!
        I0.MN5.psub!
        I0.MN4.psub!
        I0.MN3.psub!
        I0.MN2.psub!
        Further occurrences of this notice will be suppressed.
Notice from spectre during initial setup.
    Multithreading is disabled due to the size of the design being too small.


Netlist title:
        // Point Netlist Generated on: Apr 15 16:43:44 2026


Global user options:
         psfversion = 1.4.0
            vabstol = 1e-06
            iabstol = 1e-12
               temp = -40
           homotopy = 5
              limit = delta
         compatible = spice2
               gmin = 1e-12
             rforce = 1
           maxnotes = 5
           maxwarns = 5
             digits = 5
               cols = 80
             pivrel = 0.001
           sensfile = ../psf/sens.output
     checklimitdest = psf
     enable_pre_ver = yes
      ignorezerovar = yes
               save = allpub
             reltol = 0.0001
               tnom = 27
             scalem = 1
              scale = 1

Scoped user options:

Circuit inventory:
              nodes 88
            bsim3v3 35    
     bsource_19b458 2     
          capacitor 38    
         cpoly_ahdl 17    
            isource 1     
          modn_ahdl 19    
          modp_ahdl 16    
           resistor 1     
        rpolyh_ahdl 2     
            vsource 8     

Analysis and control statement inventory:
               info 7     
               tran 1     

Output statements:
             .probe 0     
           .measure 0     
               save 0     

Design checks inventory:
          paramtest 55    
             assert 175   


Notice from spectre during initial setup.
    APS enabled.
    1 notice suppressed.
    72 warnings suppressed.

Time for parsing: CPU = 19.192 ms, elapsed = 631.979 ms.
Time accumulated: CPU = 449.166 ms, elapsed = 1.01826 s.
Peak resident memory used = 197 Mbytes.

~~~~~~~~~~~~~~~~~~~~~~
Pre-Simulation Summary
~~~~~~~~~~~~~~~~~~~~~~
   -   (APS) Multi-threading. The recommended number of threads is 1, consider adding +mt=1 on command line.
~~~~~~~~~~~~~~~~~~~~~~

Notice from spectre during transient analysis `tran'.
    No checklimit analysis defined for asserts. A default checklimit analysis 'SpectreChecklimitAnal' has been created with all asserts enabled.


***********************************************
Transient Analysis `tran': time = (0 s -> 50 s)
***********************************************

Warning from spectre during check, during IC analysis, during transient analysis `tran'.
    WARNING (CMI-2943): Parameter checks have been ignored because the valid value for parameter 'trise' could not be found in 'C1'.
    WARNING (CMI-2943): Parameter checks have been ignored because the valid value for parameter 'trise' could not be found in 'I0.R2.CM'.
    WARNING (CMI-2943): Parameter checks have been ignored because the valid value for parameter 'trise' could not be found in 'I0.R2.CS1'.
    WARNING (CMI-2943): Parameter checks have been ignored because the valid value for parameter 'trise' could not be found in 'I0.R2.CS0'.
    WARNING (CMI-2943): Parameter checks have been ignored because the valid value for parameter 'trise' could not be found in 'I0.C3.C1'.
        Further occurrences of this warning will be suppressed.

Convergence achieved in 12 iterations.
DC simulation time: CPU = 2.89 ms, elapsed = 2.89106 ms.

Opening the PSF file ../psf/tran.tran.tran ...
Important parameter values:
    start = 0 s
    outputstart = 0 s
    stop = 50 s
    step = 50 ms
    maxstep = 500 ms
    ic = all
    useprevic = no
    skipdc = no
    reltol = 10e-06
    abstol(V) = 1 uV
    abstol(I) = 1 pA
    temp = -40 C
    tnom = 27 C
    tempeffects = all
    errpreset = conservative
    method = gear2only
    lteratio = 10
    relref = alllocal
    cmin = 0 F
    gmin = 1 pS
    rabsshort = 1 mOhm


Notice from spectre during transient analysis `tran'.
    Multithreading is disabled due to the size of the design being too small.


Output and IC/nodeset summary:
                 save   8       (current)
                 save   87      (voltage)

    tran: time = 1.292 s     (2.58 %), step = 121.7 ms     (243 m%)
    tran: time = 4.006 s     (8.01 %), step = 313.3 ms     (627 m%)
    tran: time = 6.492 s       (13 %), step = 500 ms          (1 %)
    tran: time = 8.992 s       (18 %), step = 500 ms          (1 %)
    tran: time = 11.49 s       (23 %), step = 500 ms          (1 %)
    tran: time = 13.99 s       (28 %), step = 500 ms          (1 %)
    tran: time = 16.49 s       (33 %), step = 500 ms          (1 %)
    tran: time = 18.99 s       (38 %), step = 500 ms          (1 %)
    tran: time = 21.49 s       (43 %), step = 500 ms          (1 %)
    tran: time = 23.99 s       (48 %), step = 500 ms          (1 %)
    tran: time = 26.49 s       (53 %), step = 500 ms          (1 %)
    tran: time = 28.99 s       (58 %), step = 500 ms          (1 %)
    tran: time = 31.49 s       (63 %), step = 500 ms          (1 %)
    tran: time = 33.99 s       (68 %), step = 500 ms          (1 %)
    tran: time = 36.49 s       (73 %), step = 500 ms          (1 %)
    tran: time = 38.99 s       (78 %), step = 500 ms          (1 %)
    tran: time = 41.49 s       (83 %), step = 500 ms          (1 %)
    tran: time = 43.99 s       (88 %), step = 500 ms          (1 %)
    tran: time = 46.29 s     (92.6 %), step = 87.59 ms     (175 m%)
    tran: time = 48.85 s     (97.7 %), step = 246.8 ms     (494 m%)
Number of accepted tran steps =             659

Maximum value achieved for any signal of each quantity: 
V: V(vout_filt) = 3.3 V
I: I(V8:p) = 6.477 uA

~~~~~~~~~~~~~~~~~~~~~~~~~~~~~~~~~
Post-Transient Simulation Summary
~~~~~~~~~~~~~~~~~~~~~~~~~~~~~~~~~
   -   To further speed up simulation, consider
          add ++aps on command line
   -   Non-default settings that could significantly slow down simulation
          errpreset = conservative, default moderate
          reltol = 10e-06, default 100e-06 (conservative)
~~~~~~~~~~~~~~~~~~~~~~~~~~~~~~~~~


During simulation, the CPU load for active processors is :
         0 (5.3 %)       1 (13.0 %)      2 (9.8 %)       3 (1.5 %)
         4 (3.0 %)       5 (2.3 %)       6 (100.0 %)     7 (5.9 %)
         8 (3.8 %)       9 (6.8 %)      10 (4.5 %)      11 (3.8 %)
        12 (44.8 %)     13 (6.8 %)      14 (12.7 %)     15 (4.6 %)
        16 (100.0 %)    17 (12.8 %)     18 (3.0 %)      19 (9.6 %)
        20 (3.0 %)      21 (4.5 %)      22 (3.8 %)      23 (35.3 %)
        24 (10.8 %)     25 (16.8 %)     26 (9.0 %)      27 (6.8 %)
        28 (69.4 %)     29 (13.5 %)     30 (10.6 %)     31 (8.8 %)
        32 (31.1 %)     33 (4.5 %)      34 (36.8 %)     35 (18.3 %)
        36 (37.6 %)     37 (22.7 %)     38 (57.1 %)     39 (44.8 %)
        40 (4.5 %)      41 (16.7 %)     42 (4.6 %)      43 (6.9 %)
        44 (5.3 %)      45 (9.2 %)      46 (100.0 %)    47 (6.1 %)
        Total: 952.7%
Initial condition solution time: CPU = 2.933 ms, elapsed = 2.93684 ms.
Intrinsic tran analysis time:    CPU = 373.986 ms, elapsed = 375.517 ms.
Total time required for tran analysis `tran': CPU = 460.332 ms, elapsed = 465.558 ms, util. = 98.9%.
Time accumulated: CPU = 936.365 ms, elapsed = 1.51216 s.
Peak resident memory used = 208 Mbytes.


Notice from spectre.
    12 warnings suppressed.

finalTimeOP: writing operating point information to rawfile.

Opening the PSF file ../psf/finalTimeOP.info ...
modelParameter: writing model parameter values to rawfile.

Opening the PSF file ../psf/modelParameter.info ...
element: writing instance parameter values to rawfile.

Opening the PSF file ../psf/element.info ...
outputParameter: writing output parameter values to rawfile.

Opening the PSF file ../psf/outputParameter.info ...
designParamVals: writing netlist parameters to rawfile.

Opening the PSFASCII file ../psf/designParamVals.info ...
primitives: writing primitives to rawfile.

Opening the PSFASCII file ../psf/primitives.info.primitives ...
subckts: writing subcircuits to rawfile.

Opening the PSFASCII file ../psf/subckts.info.subckts ...
Licensing Information:
Lic Summary:
[16:43:46.131594] Cdslmd servers:3000@lic08.ug.kth.se:29000@lic06.ug.kth.se
[16:43:46.131634] Feature usage summary:
[16:43:46.131635] Virtuoso_Multi_mode_Simulation


Aggregate audit (4:43:46 PM, Wed Apr 15, 2026):
Time used: CPU = 969 ms, elapsed = 1.56 s, util. = 62.3%.
Time spent in licensing: elapsed = 52.4 ms.
Peak memory used = 209 Mbytes.
Simulation started at: 4:43:44 PM, Wed Apr 15, 2026, ended at: 4:43:46 PM, Wed Apr 15, 2026, with elapsed time (wall clock): 1.56 s.
spectre completes with 0 errors, 22 warnings, and 10 notices.


********* LOG ENDS **************
**                             **
**                             **
********* LOG STARTS ************



Spectre (R) Circuit Simulator
Version 24.1.0.288.isr5 64bit -- 3 Apr 2025
Copyright (C) 1989-2025 Cadence Design Systems, Inc. All rights reserved worldwide. Cadence and Spectre are registered trademarks of Cadence Design Systems, Inc. All others are the property of their respective holders.

Includes RSA BSAFE(R) Cryptographic or Security Protocol Software from RSA Security, Inc.

User: davidevi   Host: il2244vt26_davidevi   HostID: 11AC2C00   PID: 1017540
Memory  available: 3.0334 TB  physical: 3.2467 TB
Linux   : Rocky Linux release 8.10 (Green Obsidian)
CPU Type: Intel(R) Xeon(R) CPU E7-8857 v2 @ 3.00GHz
        Socket: Processors [Frequency]
        0:       0 [3100.0],  1 [1200.0],  2 [2999.9],  3 [1200.0],  4 [1200.0]
                 5 [1200.0],  6 [2999.9],  7 [1200.0],  8 [1200.0],  9 [1200.0]
                10 [2800.0], 11 [1200.0]
        1:      12 [2800.0], 13 [3600.0], 14 [2999.9], 15 [2800.0], 16 [2999.9]
                17 [1200.0], 18 [1800.0], 19 [1200.0], 20 [2800.0], 21 [2999.9]
                22 [2800.0], 23 [2999.9]
        2:      24 [3100.0], 25 [1600.0], 26 [2999.9], 27 [1200.0], 28 [3100.0]
                29 [3000.0], 30 [3400.0], 31 [2700.0], 32 [2600.0], 33 [1200.0]
                34 [3600.0], 35 [3600.0]
        3:      36 [1200.0], 37 [2999.9], 38 [2999.9], 39 [1200.0], 40 [2999.9]
                41 [1200.0], 42 [2600.0], 43 [1200.0], 44 [3600.0], 45 [2500.0]
                46 [2999.9], 47 [2900.0]
        
System load averages (1min, 5min, 15min) : 26.2 %, 23.1 %, 24.9 %
HPC is enabled


Simulating `input.scs' on il2244vt26_davidevi at 4:43:41 PM, Wed Apr 15, 2026 (process id: 1017540).
Current working directory: /home/davidevi/Desktop/myproject/Sim/VGA/VGA_1_wakeup_tb/adexl/results/data/Interactive.107/12/wakeup/netlist
Command line:
    /opt/tools/cadence/installs/SPECTRE241/tools/bin/spectre -64  \
        input.scs +escchars +log ../psf/spectre.out -format psfbin  \
        +rtsf -raw ../psf +aps +mt +lqtimeout 900 -maxw 5 -maxn 5  \
        +param /opt/pdk/ams/410/spectre/ams_range.lmts -env ade  \
        -ahdllibdir  \
        /home/davidevi/Desktop/myproject/Sim/VGA/VGA_1_wakeup_tb/adexl/results/data/Interactive.107/sharedData/Job456/ahdl/input.ahdlSimDB  \
        +logstatus  \
        +adespetkn=0001089D13A302B663E41FB550AF0DF415A679A322D5069144BF588C12F604E07EF416DC01A319B562BB63D34AEF0CA645A312BD2BF335B40CC107E856E34F927DD179D15D9175FF34986BDD0AF002BA50FD7FD707E002A700AC1C801BFD45E00EAD79D128F874D3349879D118F874D33498100ED8C4B4EF5D47000036B5

Simulation Id: xurlS58YAguZ7pII
Licensing Information:
[16:43:41.121754] Configured Lic search path (24.01-s002): 3000@lic08.ug.kth.se:29000@lic06.ug.kth.se

Licensing Information:
[16:43:41.172195] Periodic Lic check successful

Loading /opt/tools/cadence/installs/SPECTRE241/tools.lnx86/cmi/lib/64bit/5.0/libinfineon_sh.so ...
Loading /opt/tools/cadence/installs/SPECTRE241/tools.lnx86/cmi/lib/64bit/5.0/libphilips_I_sh.so ...
Loading /opt/tools/cadence/installs/SPECTRE241/tools.lnx86/cmi/lib/64bit/5.0/libphilips_sh.so ...
Loading /opt/tools/cadence/installs/SPECTRE241/tools.lnx86/cmi/lib/64bit/5.0/libsparam_sh.so ...
Loading /opt/tools/cadence/installs/SPECTRE241/tools.lnx86/cmi/lib/64bit/5.0/libstmodels_sh.so ...

Warning from spectre.
    WARNING (SPECTRE-691): This CPU processor does not support x86 advanced vector extensions instructions. This may affect math operations and slow down the simulation.

Reading file:  /home/davidevi/Desktop/myproject/Sim/VGA/VGA_1_wakeup_tb/adexl/results/data/Interactive.107/12/wakeup/netlist/input.scs
Reading file:  /opt/pdk/ams/410/spectre/ams_range.lmts

Warning from spectre during read of parameter soft limits file `/opt/pdk/ams/410/spectre/ams_range.lmts', during circuit read-in.
    WARNING (SPECTRE-8360): line 1511: `ac' is an undefined primitive device.
    WARNING (SPECTRE-8360): line 1512: `ac' is an undefined primitive device.
    WARNING (SPECTRE-8360): line 1513: `ac' is an undefined primitive device.
    WARNING (SPECTRE-8360): line 1514: `ac' is an undefined primitive device.
    WARNING (SPECTRE-8360): line 1515: `ac' is an undefined primitive device.
        Further occurrences of this warning will be suppressed.

Reading file:  /opt/tools/cadence/installs/SPECTRE241/tools.lnx86/spectre/etc/configs/spectre.cfg
Reading file:  /opt/pdk/ams/410/spectre/c35/soac/soac.scs
Reading file:  /opt/pdk/ams/410/spectre/c35/soac/processOption.scs
Reading file:  /opt/pdk/ams/410/spectre/c35/soac/process.scs
Reading file:  /opt/pdk/ams/410/spectre/c35/soac/soac.va

Warning from spectre during AHDL read-in.
    WARNING (VACOMP-2435): The environment variable CDS_AHDLCMI_ENABLE is no longer supported. Therefore, the simulator will use the default compiled C code flow.

Reading link:  /opt/tools/cadence/installs/SPECTRE241/tools.lnx86/spectre/etc/ahdl/constants.h
Reading file:  /opt/tools/cadence/installs/SPECTRE241/tools.lnx86/spectre/etc/ahdl/constants.vams
Reading link:  /opt/tools/cadence/installs/SPECTRE241/tools.lnx86/spectre/etc/ahdl/discipline.h
Reading file:  /opt/tools/cadence/installs/SPECTRE241/tools.lnx86/spectre/etc/ahdl/disciplines.vams
Reading file:  /opt/pdk/ams/410/spectre/c35/processOption/C35B4C3.scs
Reading file:  /opt/pdk/ams/410/spectre/c35/soac/cmos53.scs
Reading file:  /opt/pdk/ams/410/spectre/c35/soac/res.scs
Reading file:  /opt/pdk/ams/410/spectre/c35/soac/cap.scs
Reading file:  /opt/pdk/ams/410/spectre/c35/soac/bip.scs
Reading file:  /opt/pdk/ams/410/spectre/c35/soac/ind.scs
Reading file:  /opt/pdk/ams/410/spectre/c35/soac/esddiode.scs
Time for NDB Parsing: CPU = 176.547 ms, elapsed = 309.79 ms.
Time accumulated: CPU = 377.882 ms, elapsed = 309.793 ms.
Peak resident memory used = 175 Mbytes.

Existing shared object for module modn_ahdl is up to date.
Installed compiled interface for modn_ahdl.
Existing shared object for module modp_ahdl is up to date.
Installed compiled interface for modp_ahdl.
Existing shared object for module cpoly_ahdl is up to date.
Installed compiled interface for cpoly_ahdl.
Existing shared object for module rpolyh_ahdl is up to date.
Installed compiled interface for rpolyh_ahdl.
Existing shared object for module bsource_19b458 is up to date.
Installed compiled interface for bsource_19b458.
Time for Elaboration: CPU = 46.535 ms, elapsed = 48.9509 ms.
Time accumulated: CPU = 424.575 ms, elapsed = 358.901 ms.
Peak resident memory used = 188 Mbytes.


Notice from spectre during hierarchy flattening.
    The value 'psf' specified for the 'checklimitdest' option will no longer be supported in future releases. Use 'spectre -h' to see other recommended values for the 'checklimitdest' option.


*****************************************************************************************
* 
* INFO: AMS_processOption = C35B4C3
* 
* INFO: Valid Modules  PIP VG5 HIRES
* 
*****************************************************************************************


Notice from spectre during hierarchy flattening.
    V8: `period' has the unusually large value of 100 s.


Time for EDB Visiting: CPU = 7.887 ms, elapsed = 7.88808 ms.
Time accumulated: CPU = 432.678 ms, elapsed = 367.004 ms.
Peak resident memory used = 190 Mbytes.

Loading /opt/tools/cadence/installs/SPECTRE241/tools.lnx86/mdl/lib/64bit/libSpectreEH_sh.so ...

Warning from spectre during initial setup.
    WARNING (SPECTRE-16460): SOAC_cvarm_vspsub:Specified subcircuit master `cvarm' was not found.
    WARNING (SPECTRE-16462): SOAC_cvarm_vspsub:Error in specification of subcircuit master. Assert is ignored.
    WARNING (SPECTRE-16460): SOAC_cvarm_vbs:Specified subcircuit master `cvarm' was not found.
    WARNING (SPECTRE-16462): SOAC_cvarm_vbs:Error in specification of subcircuit master. Assert is ignored.
    WARNING (SPECTRE-16460): SOAC_cvarm_vgb:Specified subcircuit master `cvarm' was not found.
    WARNING (SPECTRE-16462): SOAC_cvarm_vgb:Error in specification of subcircuit master. Assert is ignored.
    WARNING (SPECTRE-16460): SOAC_cvart_vspsub:Specified subcircuit master `cvart' was not found.
    WARNING (SPECTRE-16462): SOAC_cvart_vspsub:Error in specification of subcircuit master. Assert is ignored.
    WARNING (SPECTRE-16460): SOAC_cvart_vbs:Specified subcircuit master `cvart' was not found.
        Further occurrences of this warning will be suppressed.
    WARNING (SPECTRE-16462): SOAC_cvart_vbs:Error in specification of subcircuit master. Assert is ignored.
        Further occurrences of this warning will be suppressed.
Notice from spectre during topology check.
    Only one connection to the following 43 nodes:
        I0.MN6.psub!
        I0.MN5.psub!
        I0.MN4.psub!
        I0.MN3.psub!
        I0.MN2.psub!
        Further occurrences of this notice will be suppressed.
Notice from spectre during initial setup.
    Multithreading is disabled due to the size of the design being too small.


Netlist title:
        // Point Netlist Generated on: Apr 15 16:43:40 2026


Global user options:
         psfversion = 1.4.0
            vabstol = 1e-06
            iabstol = 1e-12
               temp = -40
           homotopy = 5
              limit = delta
         compatible = spice2
               gmin = 1e-12
             rforce = 1
           maxnotes = 5
           maxwarns = 5
             digits = 5
               cols = 80
             pivrel = 0.001
           sensfile = ../psf/sens.output
     checklimitdest = psf
     enable_pre_ver = yes
      ignorezerovar = yes
               save = allpub
             reltol = 0.0001
               tnom = 27
             scalem = 1
              scale = 1

Scoped user options:

Circuit inventory:
              nodes 88
            bsim3v3 35    
     bsource_19b458 2     
          capacitor 38    
         cpoly_ahdl 17    
            isource 1     
          modn_ahdl 19    
          modp_ahdl 16    
           resistor 1     
        rpolyh_ahdl 2     
            vsource 8     

Analysis and control statement inventory:
               info 7     
               tran 1     

Output statements:
             .probe 0     
           .measure 0     
               save 0     

Design checks inventory:
          paramtest 55    
             assert 175   


Notice from spectre during initial setup.
    APS enabled.
    1 notice suppressed.
    72 warnings suppressed.

Time for parsing: CPU = 18.805 ms, elapsed = 635.513 ms.
Time accumulated: CPU = 451.607 ms, elapsed = 1.00264 s.
Peak resident memory used = 197 Mbytes.

~~~~~~~~~~~~~~~~~~~~~~
Pre-Simulation Summary
~~~~~~~~~~~~~~~~~~~~~~
   -   (APS) Multi-threading. The recommended number of threads is 1, consider adding +mt=1 on command line.
~~~~~~~~~~~~~~~~~~~~~~

Notice from spectre during transient analysis `tran'.
    No checklimit analysis defined for asserts. A default checklimit analysis 'SpectreChecklimitAnal' has been created with all asserts enabled.


***********************************************
Transient Analysis `tran': time = (0 s -> 50 s)
***********************************************

Warning from spectre during check, during IC analysis, during transient analysis `tran'.
    WARNING (CMI-2943): Parameter checks have been ignored because the valid value for parameter 'trise' could not be found in 'C1'.
    WARNING (CMI-2943): Parameter checks have been ignored because the valid value for parameter 'trise' could not be found in 'I0.R2.CM'.
    WARNING (CMI-2943): Parameter checks have been ignored because the valid value for parameter 'trise' could not be found in 'I0.R2.CS1'.
    WARNING (CMI-2943): Parameter checks have been ignored because the valid value for parameter 'trise' could not be found in 'I0.R2.CS0'.
    WARNING (CMI-2943): Parameter checks have been ignored because the valid value for parameter 'trise' could not be found in 'I0.C3.C1'.
        Further occurrences of this warning will be suppressed.

Convergence achieved in 12 iterations.
DC simulation time: CPU = 2.801 ms, elapsed = 2.80213 ms.

Opening the PSF file ../psf/tran.tran.tran ...
Important parameter values:
    start = 0 s
    outputstart = 0 s
    stop = 50 s
    step = 50 ms
    maxstep = 500 ms
    ic = all
    useprevic = no
    skipdc = no
    reltol = 10e-06
    abstol(V) = 1 uV
    abstol(I) = 1 pA
    temp = -40 C
    tnom = 27 C
    tempeffects = all
    errpreset = conservative
    method = gear2only
    lteratio = 10
    relref = alllocal
    cmin = 0 F
    gmin = 1 pS
    rabsshort = 1 mOhm


Notice from spectre during transient analysis `tran'.
    Multithreading is disabled due to the size of the design being too small.


Output and IC/nodeset summary:
                 save   8       (current)
                 save   87      (voltage)

    tran: time = 1.312 s     (2.62 %), step = 101.2 ms     (202 m%)
    tran: time = 4.094 s     (8.19 %), step = 404.7 ms     (809 m%)
    tran: time = 6.536 s     (13.1 %), step = 500 ms          (1 %)
    tran: time = 9.036 s     (18.1 %), step = 500 ms          (1 %)
    tran: time = 11.54 s     (23.1 %), step = 500 ms          (1 %)
    tran: time = 14.04 s     (28.1 %), step = 500 ms          (1 %)
    tran: time = 16.54 s     (33.1 %), step = 500 ms          (1 %)
    tran: time = 19.04 s     (38.1 %), step = 500 ms          (1 %)
    tran: time = 21.54 s     (43.1 %), step = 500 ms          (1 %)
    tran: time = 24.04 s     (48.1 %), step = 500 ms          (1 %)
    tran: time = 26.54 s     (53.1 %), step = 500 ms          (1 %)
    tran: time = 29.04 s     (58.1 %), step = 500 ms          (1 %)
    tran: time = 31.54 s     (63.1 %), step = 500 ms          (1 %)
    tran: time = 34.04 s     (68.1 %), step = 500 ms          (1 %)
    tran: time = 36.54 s     (73.1 %), step = 500 ms          (1 %)
    tran: time = 39.04 s     (78.1 %), step = 500 ms          (1 %)
    tran: time = 41.54 s     (83.1 %), step = 500 ms          (1 %)
    tran: time = 44.04 s     (88.1 %), step = 500 ms          (1 %)
    tran: time = 46.54 s     (93.1 %), step = 500 ms          (1 %)
    tran: time = 49.04 s     (98.1 %), step = 500 ms          (1 %)
Number of accepted tran steps =             728

Maximum value achieved for any signal of each quantity: 
V: V(S<0>) = 3.3 V
I: I(V8:p) = 6.465 uA

~~~~~~~~~~~~~~~~~~~~~~~~~~~~~~~~~
Post-Transient Simulation Summary
~~~~~~~~~~~~~~~~~~~~~~~~~~~~~~~~~
   -   To further speed up simulation, consider
          add ++aps on command line
   -   Non-default settings that could significantly slow down simulation
          errpreset = conservative, default moderate
          reltol = 10e-06, default 100e-06 (conservative)
~~~~~~~~~~~~~~~~~~~~~~~~~~~~~~~~~


During simulation, the CPU load for active processors is :
         0 (11.5 %)      1 (41.5 %)      2 (100.0 %)     3 (3.7 %)
         4 (49.6 %)      5 (5.9 %)       6 (100.0 %)     7 (36.0 %)
         8 (8.2 %)       9 (2.3 %)      10 (26.3 %)     11 (6.0 %)
        12 (14.7 %)     13 (15.0 %)     14 (100.0 %)    15 (10.9 %)
        16 (100.0 %)    17 (9.2 %)      18 (8.1 %)      19 (6.7 %)
        20 (8.7 %)      21 (5.9 %)      22 (9.7 %)      23 (68.9 %)
        24 (26.1 %)     25 (14.8 %)     26 (36.8 %)     27 (6.8 %)
        28 (7.5 %)      29 (21.2 %)     30 (7.5 %)      31 (5.3 %)
        32 (18.9 %)     33 (27.4 %)     34 (5.2 %)      35 (11.3 %)
        36 (9.0 %)      37 (80.3 %)     38 (5.3 %)      39 (5.2 %)
        40 (2.2 %)      41 (2.3 %)      42 (3.7 %)      43 (3.0 %)
        44 (11.3 %)     45 (3.0 %)      46 (100.0 %)    47 (5.2 %)
        Total: 1168.3%
Initial condition solution time: CPU = 2.846 ms, elapsed = 2.8491 ms.
Intrinsic tran analysis time:    CPU = 402.687 ms, elapsed = 404.8 ms.
Total time required for tran analysis `tran': CPU = 489.504 ms, elapsed = 495.446 ms, util. = 98.8%.
Time accumulated: CPU = 967.504 ms, elapsed = 1.5258 s.
Peak resident memory used = 208 Mbytes.


Notice from spectre.
    12 warnings suppressed.

finalTimeOP: writing operating point information to rawfile.

Opening the PSF file ../psf/finalTimeOP.info ...
modelParameter: writing model parameter values to rawfile.

Opening the PSF file ../psf/modelParameter.info ...
element: writing instance parameter values to rawfile.

Opening the PSF file ../psf/element.info ...
outputParameter: writing output parameter values to rawfile.

Opening the PSF file ../psf/outputParameter.info ...
designParamVals: writing netlist parameters to rawfile.

Opening the PSFASCII file ../psf/designParamVals.info ...
primitives: writing primitives to rawfile.

Opening the PSFASCII file ../psf/primitives.info.primitives ...
subckts: writing subcircuits to rawfile.

Opening the PSFASCII file ../psf/subckts.info.subckts ...
Licensing Information:
Lic Summary:
[16:43:42.053824] Cdslmd servers:3000@lic08.ug.kth.se:29000@lic06.ug.kth.se
[16:43:42.578155] Feature usage summary:
[16:43:42.578155] Virtuoso_Multi_mode_Simulation


Aggregate audit (4:43:42 PM, Wed Apr 15, 2026):
Time used: CPU = 1 s, elapsed = 1.57 s, util. = 63.7%.
Time spent in licensing: elapsed = 69 ms.
Peak memory used = 209 Mbytes.
Simulation started at: 4:43:41 PM, Wed Apr 15, 2026, ended at: 4:43:42 PM, Wed Apr 15, 2026, with elapsed time (wall clock): 1.57 s.
spectre completes with 0 errors, 22 warnings, and 10 notices.


********* LOG ENDS **************
**                             **
**                             **
********* LOG STARTS ************



Spectre (R) Circuit Simulator
Version 24.1.0.288.isr5 64bit -- 3 Apr 2025
Copyright (C) 1989-2025 Cadence Design Systems, Inc. All rights reserved worldwide. Cadence and Spectre are registered trademarks of Cadence Design Systems, Inc. All others are the property of their respective holders.

Includes RSA BSAFE(R) Cryptographic or Security Protocol Software from RSA Security, Inc.

User: davidevi   Host: il2244vt26_davidevi   HostID: 11AC2C00   PID: 1017426
Memory  available: 3.0333 TB  physical: 3.2467 TB
Linux   : Rocky Linux release 8.10 (Green Obsidian)
CPU Type: Intel(R) Xeon(R) CPU E7-8857 v2 @ 3.00GHz
        Socket: Processors [Frequency]
        0:       0 [1200.0],  1 [2700.0],  2 [2999.9],  3 [3600.0],  4 [1200.0]
                 5 [1200.0],  6 [2999.9],  7 [1200.0],  8 [2600.0],  9 [1200.0]
                10 [1200.0], 11 [1200.0]
        1:      12 [3600.0], 13 [3600.0], 14 [2500.0], 15 [3600.0], 16 [2999.9]
                17 [1200.0], 18 [2600.0], 19 [2700.0], 20 [1200.0], 21 [1200.0]
                22 [2700.0], 23 [2999.9]
        2:      24 [2999.9], 25 [1200.0], 26 [1200.0], 27 [2400.0], 28 [1200.0]
                29 [2000.0], 30 [1200.0], 31 [3600.0], 32 [2900.0], 33 [2999.9]
                34 [3000.0], 35 [2800.0]
        3:      36 [3500.0], 37 [2500.0], 38 [1200.0], 39 [3600.0], 40 [2700.0]
                41 [2700.0], 42 [3600.0], 43 [2100.0], 44 [3500.0], 45 [2700.0]
                46 [2999.9], 47 [1200.0]
        
System load averages (1min, 5min, 15min) : 26.2 %, 23.1 %, 24.9 %
HPC is enabled


Simulating `input.scs' on il2244vt26_davidevi at 4:43:40 PM, Wed Apr 15, 2026 (process id: 1017426).
Current working directory: /home/davidevi/Desktop/myproject/Sim/VGA/VGA_1_wakeup_tb/adexl/results/data/Interactive.107/10/wakeup/netlist
Command line:
    /opt/tools/cadence/installs/SPECTRE241/tools/bin/spectre -64  \
        input.scs +escchars +log ../psf/spectre.out -format psfbin  \
        +rtsf -raw ../psf +aps +mt +lqtimeout 900 -maxw 5 -maxn 5  \
        +param /opt/pdk/ams/410/spectre/ams_range.lmts -env ade  \
        -ahdllibdir  \
        /home/davidevi/Desktop/myproject/Sim/VGA/VGA_1_wakeup_tb/adexl/results/data/Interactive.107/sharedData/Job458/ahdl/input.ahdlSimDB  \
        +logstatus  \
        +adespetkn=0001089D13A302B663E41FB550AF0DF415A679A322D5069144BF588C12F604E07EF416DC01A319B562BB63D366AC20E545A35CF01ED9318267F604F84EC34F920CCB79D15D9175FF34986BDD0AF002BA50FD7FD707E002A700AC1C821CFF42E20EAF79D118F874D3349879D118F874D33498100ED8C3B4E85D470000369C

Simulation Id: T6CpvOSnEQmzEz8S
Licensing Information:
[16:43:40.121746] Configured Lic search path (24.01-s002): 3000@lic08.ug.kth.se:29000@lic06.ug.kth.se

Licensing Information:
[16:43:40.233024] Periodic Lic check successful

Loading /opt/tools/cadence/installs/SPECTRE241/tools.lnx86/cmi/lib/64bit/5.0/libinfineon_sh.so ...
Loading /opt/tools/cadence/installs/SPECTRE241/tools.lnx86/cmi/lib/64bit/5.0/libphilips_I_sh.so ...
Loading /opt/tools/cadence/installs/SPECTRE241/tools.lnx86/cmi/lib/64bit/5.0/libphilips_sh.so ...
Loading /opt/tools/cadence/installs/SPECTRE241/tools.lnx86/cmi/lib/64bit/5.0/libsparam_sh.so ...
Loading /opt/tools/cadence/installs/SPECTRE241/tools.lnx86/cmi/lib/64bit/5.0/libstmodels_sh.so ...

Warning from spectre.
    WARNING (SPECTRE-691): This CPU processor does not support x86 advanced vector extensions instructions. This may affect math operations and slow down the simulation.

Reading file:  /home/davidevi/Desktop/myproject/Sim/VGA/VGA_1_wakeup_tb/adexl/results/data/Interactive.107/10/wakeup/netlist/input.scs
Reading file:  /opt/pdk/ams/410/spectre/ams_range.lmts

Warning from spectre during read of parameter soft limits file `/opt/pdk/ams/410/spectre/ams_range.lmts', during circuit read-in.
    WARNING (SPECTRE-8360): line 1511: `ac' is an undefined primitive device.
    WARNING (SPECTRE-8360): line 1512: `ac' is an undefined primitive device.
    WARNING (SPECTRE-8360): line 1513: `ac' is an undefined primitive device.
    WARNING (SPECTRE-8360): line 1514: `ac' is an undefined primitive device.
    WARNING (SPECTRE-8360): line 1515: `ac' is an undefined primitive device.
        Further occurrences of this warning will be suppressed.

Reading file:  /opt/tools/cadence/installs/SPECTRE241/tools.lnx86/spectre/etc/configs/spectre.cfg
Reading file:  /opt/pdk/ams/410/spectre/c35/soac/soac.scs
Reading file:  /opt/pdk/ams/410/spectre/c35/soac/processOption.scs
Reading file:  /opt/pdk/ams/410/spectre/c35/soac/process.scs
Reading file:  /opt/pdk/ams/410/spectre/c35/soac/soac.va

Warning from spectre during AHDL read-in.
    WARNING (VACOMP-2435): The environment variable CDS_AHDLCMI_ENABLE is no longer supported. Therefore, the simulator will use the default compiled C code flow.

Reading link:  /opt/tools/cadence/installs/SPECTRE241/tools.lnx86/spectre/etc/ahdl/constants.h
Reading file:  /opt/tools/cadence/installs/SPECTRE241/tools.lnx86/spectre/etc/ahdl/constants.vams
Reading link:  /opt/tools/cadence/installs/SPECTRE241/tools.lnx86/spectre/etc/ahdl/discipline.h
Reading file:  /opt/tools/cadence/installs/SPECTRE241/tools.lnx86/spectre/etc/ahdl/disciplines.vams
Reading file:  /opt/pdk/ams/410/spectre/c35/processOption/C35B4C3.scs
Reading file:  /opt/pdk/ams/410/spectre/c35/soac/cmos53.scs
Reading file:  /opt/pdk/ams/410/spectre/c35/soac/res.scs
Reading file:  /opt/pdk/ams/410/spectre/c35/soac/cap.scs
Reading file:  /opt/pdk/ams/410/spectre/c35/soac/bip.scs
Reading file:  /opt/pdk/ams/410/spectre/c35/soac/ind.scs
Reading file:  /opt/pdk/ams/410/spectre/c35/soac/esddiode.scs
Time for NDB Parsing: CPU = 176.168 ms, elapsed = 377.548 ms.
Time accumulated: CPU = 382.6 ms, elapsed = 377.551 ms.
Peak resident memory used = 175 Mbytes.

Existing shared object for module modn_ahdl is up to date.
Installed compiled interface for modn_ahdl.
Existing shared object for module modp_ahdl is up to date.
Installed compiled interface for modp_ahdl.
Existing shared object for module cpoly_ahdl is up to date.
Installed compiled interface for cpoly_ahdl.
Existing shared object for module rpolyh_ahdl is up to date.
Installed compiled interface for rpolyh_ahdl.
Existing shared object for module bsource_19b458 is up to date.
Installed compiled interface for bsource_19b458.
Time for Elaboration: CPU = 44.708 ms, elapsed = 46.2911 ms.
Time accumulated: CPU = 427.479 ms, elapsed = 424.01 ms.
Peak resident memory used = 188 Mbytes.


Notice from spectre during hierarchy flattening.
    The value 'psf' specified for the 'checklimitdest' option will no longer be supported in future releases. Use 'spectre -h' to see other recommended values for the 'checklimitdest' option.


*****************************************************************************************
* 
* INFO: AMS_processOption = C35B4C3
* 
* INFO: Valid Modules  PIP VG5 HIRES
* 
*****************************************************************************************


Notice from spectre during hierarchy flattening.
    V8: `period' has the unusually large value of 100 s.


Time for EDB Visiting: CPU = 7.619 ms, elapsed = 7.63392 ms.
Time accumulated: CPU = 435.229 ms, elapsed = 431.774 ms.
Peak resident memory used = 190 Mbytes.

Loading /opt/tools/cadence/installs/SPECTRE241/tools.lnx86/mdl/lib/64bit/libSpectreEH_sh.so ...

Warning from spectre during initial setup.
    WARNING (SPECTRE-16460): SOAC_cvarm_vspsub:Specified subcircuit master `cvarm' was not found.
    WARNING (SPECTRE-16462): SOAC_cvarm_vspsub:Error in specification of subcircuit master. Assert is ignored.
    WARNING (SPECTRE-16460): SOAC_cvarm_vbs:Specified subcircuit master `cvarm' was not found.
    WARNING (SPECTRE-16462): SOAC_cvarm_vbs:Error in specification of subcircuit master. Assert is ignored.
    WARNING (SPECTRE-16460): SOAC_cvarm_vgb:Specified subcircuit master `cvarm' was not found.
    WARNING (SPECTRE-16462): SOAC_cvarm_vgb:Error in specification of subcircuit master. Assert is ignored.
    WARNING (SPECTRE-16460): SOAC_cvart_vspsub:Specified subcircuit master `cvart' was not found.
    WARNING (SPECTRE-16462): SOAC_cvart_vspsub:Error in specification of subcircuit master. Assert is ignored.
    WARNING (SPECTRE-16460): SOAC_cvart_vbs:Specified subcircuit master `cvart' was not found.
        Further occurrences of this warning will be suppressed.
    WARNING (SPECTRE-16462): SOAC_cvart_vbs:Error in specification of subcircuit master. Assert is ignored.
        Further occurrences of this warning will be suppressed.
Notice from spectre during topology check.
    Only one connection to the following 43 nodes:
        I0.MN6.psub!
        I0.MN5.psub!
        I0.MN4.psub!
        I0.MN3.psub!
        I0.MN2.psub!
        Further occurrences of this notice will be suppressed.
Notice from spectre during initial setup.
    Multithreading is disabled due to the size of the design being too small.


Netlist title:
        // Point Netlist Generated on: Apr 15 16:43:40 2026


Global user options:
         psfversion = 1.4.0
            vabstol = 1e-06
            iabstol = 1e-12
               temp = -40
           homotopy = 5
              limit = delta
         compatible = spice2
               gmin = 1e-12
             rforce = 1
           maxnotes = 5
           maxwarns = 5
             digits = 5
               cols = 80
             pivrel = 0.001
           sensfile = ../psf/sens.output
     checklimitdest = psf
     enable_pre_ver = yes
      ignorezerovar = yes
               save = allpub
             reltol = 0.0001
               tnom = 27
             scalem = 1
              scale = 1

Scoped user options:

Circuit inventory:
              nodes 88
            bsim3v3 35    
     bsource_19b458 2     
          capacitor 38    
         cpoly_ahdl 17    
            isource 1     
          modn_ahdl 19    
          modp_ahdl 16    
           resistor 1     
        rpolyh_ahdl 2     
            vsource 8     

Analysis and control statement inventory:
               info 7     
               tran 1     

Output statements:
             .probe 0     
           .measure 0     
               save 0     

Design checks inventory:
          paramtest 55    
             assert 175   


Notice from spectre during initial setup.
    APS enabled.
    1 notice suppressed.
    72 warnings suppressed.

Time for parsing: CPU = 18.256 ms, elapsed = 619.399 ms.
Time accumulated: CPU = 453.595 ms, elapsed = 1.05128 s.
Peak resident memory used = 197 Mbytes.

~~~~~~~~~~~~~~~~~~~~~~
Pre-Simulation Summary
~~~~~~~~~~~~~~~~~~~~~~
   -   (APS) Multi-threading. The recommended number of threads is 1, consider adding +mt=1 on command line.
~~~~~~~~~~~~~~~~~~~~~~

Notice from spectre during transient analysis `tran'.
    No checklimit analysis defined for asserts. A default checklimit analysis 'SpectreChecklimitAnal' has been created with all asserts enabled.


***********************************************
Transient Analysis `tran': time = (0 s -> 50 s)
***********************************************

Warning from spectre during check, during IC analysis, during transient analysis `tran'.
    WARNING (CMI-2943): Parameter checks have been ignored because the valid value for parameter 'trise' could not be found in 'C1'.
    WARNING (CMI-2943): Parameter checks have been ignored because the valid value for parameter 'trise' could not be found in 'I0.R2.CM'.
    WARNING (CMI-2943): Parameter checks have been ignored because the valid value for parameter 'trise' could not be found in 'I0.R2.CS1'.
    WARNING (CMI-2943): Parameter checks have been ignored because the valid value for parameter 'trise' could not be found in 'I0.R2.CS0'.
    WARNING (CMI-2943): Parameter checks have been ignored because the valid value for parameter 'trise' could not be found in 'I0.C3.C1'.
        Further occurrences of this warning will be suppressed.

Convergence achieved in 12 iterations.
DC simulation time: CPU = 2.925 ms, elapsed = 2.92587 ms.

Opening the PSF file ../psf/tran.tran.tran ...
Important parameter values:
    start = 0 s
    outputstart = 0 s
    stop = 50 s
    step = 50 ms
    maxstep = 500 ms
    ic = all
    useprevic = no
    skipdc = no
    reltol = 10e-06
    abstol(V) = 1 uV
    abstol(I) = 1 pA
    temp = -40 C
    tnom = 27 C
    tempeffects = all
    errpreset = conservative
    method = gear2only
    lteratio = 10
    relref = alllocal
    cmin = 0 F
    gmin = 1 pS
    rabsshort = 1 mOhm


Notice from spectre during transient analysis `tran'.
    Multithreading is disabled due to the size of the design being too small.


Output and IC/nodeset summary:
                 save   8       (current)
                 save   87      (voltage)

    tran: time = 1.359 s     (2.72 %), step = 120.1 ms     (240 m%)
    tran: time = 4.058 s     (8.12 %), step = 312.9 ms     (626 m%)
    tran: time = 6.547 s     (13.1 %), step = 500 ms          (1 %)
    tran: time = 9.047 s     (18.1 %), step = 500 ms          (1 %)
    tran: time = 11.55 s     (23.1 %), step = 500 ms          (1 %)
    tran: time = 14.05 s     (28.1 %), step = 500 ms          (1 %)
    tran: time = 16.55 s     (33.1 %), step = 500 ms          (1 %)
    tran: time = 19.05 s     (38.1 %), step = 500 ms          (1 %)
    tran: time = 21.55 s     (43.1 %), step = 500 ms          (1 %)
    tran: time = 24.05 s     (48.1 %), step = 500 ms          (1 %)
    tran: time = 26.55 s     (53.1 %), step = 500 ms          (1 %)
    tran: time = 29.05 s     (58.1 %), step = 500 ms          (1 %)
    tran: time = 31.55 s     (63.1 %), step = 500 ms          (1 %)
    tran: time = 34.05 s     (68.1 %), step = 500 ms          (1 %)
    tran: time = 36.55 s     (73.1 %), step = 500 ms          (1 %)
    tran: time = 39.05 s     (78.1 %), step = 500 ms          (1 %)
    tran: time = 41.55 s     (83.1 %), step = 500 ms          (1 %)
    tran: time = 43.91 s     (87.8 %), step = 400.3 ms     (801 m%)
    tran: time = 46.25 s     (92.5 %), step = 9.467 ms    (18.9 m%)
    tran: time = 49.2 s      (98.4 %), step = 461.4 ms     (923 m%)
Number of accepted tran steps =             650

Maximum value achieved for any signal of each quantity: 
V: V(vout_filt) = 3.3 V
I: I(V8:p) = 6.462 uA

~~~~~~~~~~~~~~~~~~~~~~~~~~~~~~~~~
Post-Transient Simulation Summary
~~~~~~~~~~~~~~~~~~~~~~~~~~~~~~~~~
   -   To further speed up simulation, consider
          add ++aps on command line
   -   Non-default settings that could significantly slow down simulation
          errpreset = conservative, default moderate
          reltol = 10e-06, default 100e-06 (conservative)
~~~~~~~~~~~~~~~~~~~~~~~~~~~~~~~~~


During simulation, the CPU load for active processors is :
         0 (14.4 %)      1 (11.9 %)      2 (100.0 %)     3 (3.0 %)
         4 (50.0 %)      5 (5.3 %)       6 (100.0 %)     7 (40.9 %)
         8 (3.8 %)       9 (2.2 %)      10 (14.4 %)     11 (12.7 %)
        12 (3.0 %)      13 (12.0 %)     14 (93.3 %)     15 (6.7 %)
        16 (100.0 %)    17 (9.0 %)      18 (8.1 %)      19 (3.0 %)
        20 (5.9 %)      21 (12.5 %)     22 (3.0 %)      23 (72.4 %)
        24 (34.1 %)     25 (13.4 %)     26 (39.8 %)     27 (6.7 %)
        28 (10.6 %)     29 (16.3 %)     30 (8.4 %)      31 (6.0 %)
        32 (18.0 %)     33 (25.9 %)     34 (9.6 %)      35 (6.7 %)
        36 (5.2 %)      37 (52.2 %)     38 (14.2 %)     39 (6.8 %)
        40 (1.5 %)      41 (3.7 %)      42 (3.0 %)      43 (6.0 %)
        44 (14.5 %)     45 (3.0 %)      46 (100.0 %)    47 (8.2 %)
        Total: 1101.5%
Initial condition solution time: CPU = 2.972 ms, elapsed = 2.97308 ms.
Intrinsic tran analysis time:    CPU = 360.391 ms, elapsed = 361.759 ms.
Total time required for tran analysis `tran': CPU = 446.55 ms, elapsed = 451.426 ms, util. = 98.9%.
Time accumulated: CPU = 926.035 ms, elapsed = 1.52974 s.
Peak resident memory used = 208 Mbytes.


Notice from spectre.
    12 warnings suppressed.

finalTimeOP: writing operating point information to rawfile.

Opening the PSF file ../psf/finalTimeOP.info ...
modelParameter: writing model parameter values to rawfile.

Opening the PSF file ../psf/modelParameter.info ...
element: writing instance parameter values to rawfile.

Opening the PSF file ../psf/element.info ...
outputParameter: writing output parameter values to rawfile.

Opening the PSF file ../psf/outputParameter.info ...
designParamVals: writing netlist parameters to rawfile.

Opening the PSFASCII file ../psf/designParamVals.info ...
primitives: writing primitives to rawfile.

Opening the PSFASCII file ../psf/primitives.info.primitives ...
subckts: writing subcircuits to rawfile.

Opening the PSFASCII file ../psf/subckts.info.subckts ...
Licensing Information:
Lic Summary:
[16:43:42.094665] Cdslmd servers:3000@lic08.ug.kth.se:29000@lic06.ug.kth.se
[16:43:42.094706] Feature usage summary:
[16:43:42.094707] Virtuoso_Multi_mode_Simulation


Aggregate audit (4:43:42 PM, Wed Apr 15, 2026):
Time used: CPU = 958 ms, elapsed = 1.57 s, util. = 61.1%.
Time spent in licensing: elapsed = 55.7 ms.
Peak memory used = 209 Mbytes.
Simulation started at: 4:43:40 PM, Wed Apr 15, 2026, ended at: 4:43:42 PM, Wed Apr 15, 2026, with elapsed time (wall clock): 1.57 s.
spectre completes with 0 errors, 22 warnings, and 10 notices.


********* LOG ENDS **************
**                             **
**                             **
********* LOG STARTS ************



Spectre (R) Circuit Simulator
Version 24.1.0.288.isr5 64bit -- 3 Apr 2025
Copyright (C) 1989-2025 Cadence Design Systems, Inc. All rights reserved worldwide. Cadence and Spectre are registered trademarks of Cadence Design Systems, Inc. All others are the property of their respective holders.

Includes RSA BSAFE(R) Cryptographic or Security Protocol Software from RSA Security, Inc.

User: davidevi   Host: il2244vt26_davidevi   HostID: 11AC2C00   PID: 1016931
Memory  available: 3.0335 TB  physical: 3.2467 TB
Linux   : Rocky Linux release 8.10 (Green Obsidian)
CPU Type: Intel(R) Xeon(R) CPU E7-8857 v2 @ 3.00GHz
        Socket: Processors [Frequency]
        0:       0 [1200.0],  1 [1200.0],  2 [2999.9],  3 [1200.0],  4 [1200.0]
                 5 [2999.9],  6 [2999.9],  7 [1200.0],  8 [1200.0],  9 [3600.0]
                10 [1200.0], 11 [1200.0]
        1:      12 [1200.0], 13 [3600.0], 14 [3000.0], 15 [2999.9], 16 [2100.0]
                17 [3600.0], 18 [2999.9], 19 [1200.0], 20 [2000.0], 21 [1200.0]
                22 [1200.0], 23 [2500.0]
        2:      24 [1200.0], 25 [2900.0], 26 [1200.0], 27 [3600.0], 28 [2999.9]
                29 [1200.0], 30 [2999.9], 31 [2999.9], 32 [1200.0], 33 [3600.0]
                34 [2600.0], 35 [3600.0]
        3:      36 [2600.0], 37 [2000.0], 38 [1200.0], 39 [2999.9], 40 [2999.9]
                41 [3600.0], 42 [1200.0], 43 [2600.0], 44 [1200.0], 45 [2600.0]
                46 [2999.9], 47 [3600.0]
        
System load averages (1min, 5min, 15min) : 26.6 %, 23.1 %, 24.9 %
HPC is enabled


Simulating `input.scs' on il2244vt26_davidevi at 4:43:36 PM, Wed Apr 15, 2026 (process id: 1016931).
Current working directory: /home/davidevi/Desktop/myproject/Sim/VGA/VGA_1_wakeup_tb/adexl/results/data/Interactive.107/8/wakeup/netlist
Command line:
    /opt/tools/cadence/installs/SPECTRE241/tools/bin/spectre -64  \
        input.scs +escchars +log ../psf/spectre.out -format psfbin  \
        +rtsf -raw ../psf +aps +mt +lqtimeout 900 -maxw 5 -maxn 5  \
        +param /opt/pdk/ams/410/spectre/ams_range.lmts -env ade  \
        -ahdllibdir  \
        /home/davidevi/Desktop/myproject/Sim/VGA/VGA_1_wakeup_tb/adexl/results/data/Interactive.107/sharedData/Job456/ahdl/input.ahdlSimDB  \
        +logstatus  \
        +adespetkn=0001089D13A302B663E41FB550AF0DF415A679A322D5069144BF588C12F604E07EF416DC01A319B562BB63D306FB40B245A37ADF20C601BC7FF132DC5AC14F920DF079D15D9175FF34986BDD0AF002BA50FD7FD707E002A700AC1C801BFD45E00EAD79D128F874D3349879D118F874D33498100ED8CFB4E45D47000036B6

Simulation Id: 4aMQHgKiuoyxre9h
Licensing Information:
[16:43:36.121786] Configured Lic search path (24.01-s002): 3000@lic08.ug.kth.se:29000@lic06.ug.kth.se

Licensing Information:
[16:43:36.339770] Periodic Lic check successful

Loading /opt/tools/cadence/installs/SPECTRE241/tools.lnx86/cmi/lib/64bit/5.0/libinfineon_sh.so ...
Loading /opt/tools/cadence/installs/SPECTRE241/tools.lnx86/cmi/lib/64bit/5.0/libphilips_I_sh.so ...
Loading /opt/tools/cadence/installs/SPECTRE241/tools.lnx86/cmi/lib/64bit/5.0/libphilips_sh.so ...
Loading /opt/tools/cadence/installs/SPECTRE241/tools.lnx86/cmi/lib/64bit/5.0/libsparam_sh.so ...
Loading /opt/tools/cadence/installs/SPECTRE241/tools.lnx86/cmi/lib/64bit/5.0/libstmodels_sh.so ...

Warning from spectre.
    WARNING (SPECTRE-691): This CPU processor does not support x86 advanced vector extensions instructions. This may affect math operations and slow down the simulation.

Reading file:  /home/davidevi/Desktop/myproject/Sim/VGA/VGA_1_wakeup_tb/adexl/results/data/Interactive.107/8/wakeup/netlist/input.scs
Reading file:  /opt/pdk/ams/410/spectre/ams_range.lmts

Warning from spectre during read of parameter soft limits file `/opt/pdk/ams/410/spectre/ams_range.lmts', during circuit read-in.
    WARNING (SPECTRE-8360): line 1511: `ac' is an undefined primitive device.
    WARNING (SPECTRE-8360): line 1512: `ac' is an undefined primitive device.
    WARNING (SPECTRE-8360): line 1513: `ac' is an undefined primitive device.
    WARNING (SPECTRE-8360): line 1514: `ac' is an undefined primitive device.
    WARNING (SPECTRE-8360): line 1515: `ac' is an undefined primitive device.
        Further occurrences of this warning will be suppressed.

Reading file:  /opt/tools/cadence/installs/SPECTRE241/tools.lnx86/spectre/etc/configs/spectre.cfg
Reading file:  /opt/pdk/ams/410/spectre/c35/soac/soac.scs
Reading file:  /opt/pdk/ams/410/spectre/c35/soac/processOption.scs
Reading file:  /opt/pdk/ams/410/spectre/c35/soac/process.scs
Reading file:  /opt/pdk/ams/410/spectre/c35/soac/soac.va

Warning from spectre during AHDL read-in.
    WARNING (VACOMP-2435): The environment variable CDS_AHDLCMI_ENABLE is no longer supported. Therefore, the simulator will use the default compiled C code flow.

Reading link:  /opt/tools/cadence/installs/SPECTRE241/tools.lnx86/spectre/etc/ahdl/constants.h
Reading file:  /opt/tools/cadence/installs/SPECTRE241/tools.lnx86/spectre/etc/ahdl/constants.vams
Reading link:  /opt/tools/cadence/installs/SPECTRE241/tools.lnx86/spectre/etc/ahdl/discipline.h
Reading file:  /opt/tools/cadence/installs/SPECTRE241/tools.lnx86/spectre/etc/ahdl/disciplines.vams
Reading file:  /opt/pdk/ams/410/spectre/c35/processOption/C35B4C3.scs
Reading file:  /opt/pdk/ams/410/spectre/c35/soac/cmos53.scs
Reading file:  /opt/pdk/ams/410/spectre/c35/soac/res.scs
Reading file:  /opt/pdk/ams/410/spectre/c35/soac/cap.scs
Reading file:  /opt/pdk/ams/410/spectre/c35/soac/bip.scs
Reading file:  /opt/pdk/ams/410/spectre/c35/soac/ind.scs
Reading file:  /opt/pdk/ams/410/spectre/c35/soac/esddiode.scs
Time for NDB Parsing: CPU = 188.532 ms, elapsed = 316.971 ms.
Time accumulated: CPU = 395.889 ms, elapsed = 316.974 ms.
Peak resident memory used = 175 Mbytes.

Existing shared object for module modn_ahdl is up to date.
Installed compiled interface for modn_ahdl.
Existing shared object for module modp_ahdl is up to date.
Installed compiled interface for modp_ahdl.
Existing shared object for module cpoly_ahdl is up to date.
Installed compiled interface for cpoly_ahdl.
Existing shared object for module rpolyh_ahdl is up to date.
Installed compiled interface for rpolyh_ahdl.
Existing shared object for module bsource_19b458 is up to date.
Installed compiled interface for bsource_19b458.
Time for Elaboration: CPU = 47.954 ms, elapsed = 50.148 ms.
Time accumulated: CPU = 444.047 ms, elapsed = 367.325 ms.
Peak resident memory used = 188 Mbytes.


Notice from spectre during hierarchy flattening.
    The value 'psf' specified for the 'checklimitdest' option will no longer be supported in future releases. Use 'spectre -h' to see other recommended values for the 'checklimitdest' option.


*****************************************************************************************
* 
* INFO: AMS_processOption = C35B4C3
* 
* INFO: Valid Modules  PIP VG5 HIRES
* 
*****************************************************************************************


Notice from spectre during hierarchy flattening.
    V8: `period' has the unusually large value of 100 s.


Time for EDB Visiting: CPU = 8.172 ms, elapsed = 8.19111 ms.
Time accumulated: CPU = 452.394 ms, elapsed = 375.691 ms.
Peak resident memory used = 190 Mbytes.

Loading /opt/tools/cadence/installs/SPECTRE241/tools.lnx86/mdl/lib/64bit/libSpectreEH_sh.so ...

Warning from spectre during initial setup.
    WARNING (SPECTRE-16460): SOAC_cvarm_vspsub:Specified subcircuit master `cvarm' was not found.
    WARNING (SPECTRE-16462): SOAC_cvarm_vspsub:Error in specification of subcircuit master. Assert is ignored.
    WARNING (SPECTRE-16460): SOAC_cvarm_vbs:Specified subcircuit master `cvarm' was not found.
    WARNING (SPECTRE-16462): SOAC_cvarm_vbs:Error in specification of subcircuit master. Assert is ignored.
    WARNING (SPECTRE-16460): SOAC_cvarm_vgb:Specified subcircuit master `cvarm' was not found.
    WARNING (SPECTRE-16462): SOAC_cvarm_vgb:Error in specification of subcircuit master. Assert is ignored.
    WARNING (SPECTRE-16460): SOAC_cvart_vspsub:Specified subcircuit master `cvart' was not found.
    WARNING (SPECTRE-16462): SOAC_cvart_vspsub:Error in specification of subcircuit master. Assert is ignored.
    WARNING (SPECTRE-16460): SOAC_cvart_vbs:Specified subcircuit master `cvart' was not found.
        Further occurrences of this warning will be suppressed.
    WARNING (SPECTRE-16462): SOAC_cvart_vbs:Error in specification of subcircuit master. Assert is ignored.
        Further occurrences of this warning will be suppressed.
Notice from spectre during topology check.
    Only one connection to the following 43 nodes:
        I0.MN6.psub!
        I0.MN5.psub!
        I0.MN4.psub!
        I0.MN3.psub!
        I0.MN2.psub!
        Further occurrences of this notice will be suppressed.
Notice from spectre during initial setup.
    Multithreading is disabled due to the size of the design being too small.


Netlist title:
        // Point Netlist Generated on: Apr 15 16:43:36 2026


Global user options:
         psfversion = 1.4.0
            vabstol = 1e-06
            iabstol = 1e-12
               temp = -40
           homotopy = 5
              limit = delta
         compatible = spice2
               gmin = 1e-12
             rforce = 1
           maxnotes = 5
           maxwarns = 5
             digits = 5
               cols = 80
             pivrel = 0.001
           sensfile = ../psf/sens.output
     checklimitdest = psf
     enable_pre_ver = yes
      ignorezerovar = yes
               save = allpub
             reltol = 0.0001
               tnom = 27
             scalem = 1
              scale = 1

Scoped user options:

Circuit inventory:
              nodes 88
            bsim3v3 35    
     bsource_19b458 2     
          capacitor 38    
         cpoly_ahdl 17    
            isource 1     
          modn_ahdl 19    
          modp_ahdl 16    
           resistor 1     
        rpolyh_ahdl 2     
            vsource 8     

Analysis and control statement inventory:
               info 7     
               tran 1     

Output statements:
             .probe 0     
           .measure 0     
               save 0     

Design checks inventory:
          paramtest 55    
             assert 175   


Notice from spectre during initial setup.
    APS enabled.
    1 notice suppressed.
    72 warnings suppressed.

Time for parsing: CPU = 19.193 ms, elapsed = 644.32 ms.
Time accumulated: CPU = 471.723 ms, elapsed = 1.02015 s.
[...]
         4 (3.1 %)       5 (100.0 %)     6 (100.0 %)     7 (4.6 %)
         8 (3.1 %)       9 (71.2 %)     10 (3.1 %)      11 (20.6 %)
        12 (6.2 %)      13 (31.8 %)     14 (5.3 %)      15 (4.6 %)
        16 (60.4 %)     17 (25.0 %)     18 (66.2 %)     19 (12.2 %)
        20 (6.9 %)      21 (9.8 %)      22 (3.8 %)      23 (4.7 %)
        24 (43.6 %)     25 (8.4 %)      26 (33.1 %)     27 (5.4 %)
        28 (12.1 %)     29 (3.8 %)      30 (39.6 %)     31 (29.5 %)
        32 (18.3 %)     33 (14.4 %)     34 (9.9 %)      35 (9.8 %)
        36 (9.2 %)      37 (9.8 %)      38 (18.6 %)     39 (19.7 %)
        40 (9.9 %)      41 (11.5 %)     42 (13.0 %)     43 (6.1 %)
        44 (18.0 %)     45 (13.5 %)     46 (100.0 %)    47 (46.6 %)
        Total: 1161.1%
Initial condition solution time: CPU = 2.941 ms, elapsed = 2.94304 ms.
Intrinsic tran analysis time:    CPU = 369.32 ms, elapsed = 371.423 ms.
Total time required for tran analysis `tran': CPU = 455.677 ms, elapsed = 461.996 ms, util. = 98.6%.
Time accumulated: CPU = 925.24 ms, elapsed = 1.51107 s.
Peak resident memory used = 208 Mbytes.


Notice from spectre.
    12 warnings suppressed.

finalTimeOP: writing operating point information to rawfile.

Opening the PSF file ../psf/finalTimeOP.info ...
modelParameter: writing model parameter values to rawfile.

Opening the PSF file ../psf/modelParameter.info ...
element: writing instance parameter values to rawfile.

Opening the PSF file ../psf/element.info ...
outputParameter: writing output parameter values to rawfile.

Opening the PSF file ../psf/outputParameter.info ...
designParamVals: writing netlist parameters to rawfile.

Opening the PSFASCII file ../psf/designParamVals.info ...
primitives: writing primitives to rawfile.

Opening the PSFASCII file ../psf/primitives.info.primitives ...
subckts: writing subcircuits to rawfile.

Opening the PSFASCII file ../psf/subckts.info.subckts ...
Licensing Information:
Lic Summary:
[16:43:37.210731] Cdslmd servers:3000@lic08.ug.kth.se:29000@lic06.ug.kth.se
[16:43:37.735059] Feature usage summary:
[16:43:37.735059] Virtuoso_Multi_mode_Simulation


Aggregate audit (4:43:37 PM, Wed Apr 15, 2026):
Time used: CPU = 957 ms, elapsed = 1.55 s, util. = 61.6%.
Time spent in licensing: elapsed = 56.5 ms.
Peak memory used = 209 Mbytes.
Simulation started at: 4:43:36 PM, Wed Apr 15, 2026, ended at: 4:43:37 PM, Wed Apr 15, 2026, with elapsed time (wall clock): 1.55 s.
spectre completes with 0 errors, 22 warnings, and 10 notices.


********* LOG ENDS **************
**                             **
**                             **
********* LOG STARTS ************



Spectre (R) Circuit Simulator
Version 24.1.0.288.isr5 64bit -- 3 Apr 2025
Copyright (C) 1989-2025 Cadence Design Systems, Inc. All rights reserved worldwide. Cadence and Spectre are registered trademarks of Cadence Design Systems, Inc. All others are the property of their respective holders.

Includes RSA BSAFE(R) Cryptographic or Security Protocol Software from RSA Security, Inc.

User: davidevi   Host: il2244vt26_davidevi   HostID: 11AC2C00   PID: 1016182
Memory  available: 3.0341 TB  physical: 3.2467 TB
Linux   : Rocky Linux release 8.10 (Green Obsidian)
CPU Type: Intel(R) Xeon(R) CPU E7-8857 v2 @ 3.00GHz
        Socket: Processors [Frequency]
        0:       0 [2999.9],  1 [3200.0],  2 [2999.9],  3 [1200.0],  4 [2999.9]
                 5 [2999.9],  6 [1200.0],  7 [1200.0],  8 [1200.0],  9 [1600.0]
                10 [2600.0], 11 [2500.0]
        1:      12 [3000.0], 13 [2999.9], 14 [1200.0], 15 [3000.0], 16 [1300.0]
                17 [2999.9], 18 [1200.0], 19 [2999.9], 20 [2600.0], 21 [1200.0]
                22 [3600.0], 23 [2900.0]
        2:      24 [3600.0], 25 [2999.9], 26 [1200.0], 27 [2600.0], 28 [3600.0]
                29 [3600.0], 30 [3300.0], 31 [3600.0], 32 [2999.9], 33 [2400.0]
                34 [3300.0], 35 [3600.0]
        3:      36 [3600.0], 37 [3600.0], 38 [2900.0], 39 [3600.0], 40 [2900.0]
                41 [3000.0], 42 [2500.0], 43 [2999.9], 44 [2500.0], 45 [3300.0]
                46 [2999.9], 47 [3000.0]
        
System load averages (1min, 5min, 15min) : 25.9 %, 22.9 %, 24.8 %
HPC is enabled


Simulating `input.scs' on il2244vt26_davidevi at 4:43:31 PM, Wed Apr 15, 2026 (process id: 1016182).
Current working directory: /home/davidevi/Desktop/myproject/Sim/VGA/VGA_1_wakeup_tb/adexl/results/data/Interactive.107/3/wakeup/netlist
Command line:
    /opt/tools/cadence/installs/SPECTRE241/tools/bin/spectre -64  \
        input.scs +escchars +log ../psf/spectre.out -format psfbin  \
        +rtsf -raw ../psf +aps +mt +lqtimeout 900 -maxw 5 -maxn 5  \
        +param /opt/pdk/ams/410/spectre/ams_range.lmts -env ade  \
        -ahdllibdir  \
        /home/davidevi/Desktop/myproject/Sim/VGA/VGA_1_wakeup_tb/adexl/results/data/Interactive.107/sharedData/Job457/ahdl/input.ahdlSimDB  \
        +logstatus  \
        +adespetkn=0001089D13A302B663E41FB550AF0DF415A679A322D5069144BF588C12F604E07EF416DC01A319B562BB63D351C8178145A359BA2ACB00844DAB40D942F64F9263A179D15D9175FF34986BDD0AF002BA50FD7FD707E002A700AC1C841AFC44E10EA979D12FF874D3349879D118F874D33498100ED8CAB4E15D4700003676

Simulation Id: cRFdYXy3tWaOn1W9
Licensing Information:
[16:43:32.121754] Configured Lic search path (24.01-s002): 3000@lic08.ug.kth.se:29000@lic06.ug.kth.se

Licensing Information:
[16:43:32.206032] Periodic Lic check successful

Loading /opt/tools/cadence/installs/SPECTRE241/tools.lnx86/cmi/lib/64bit/5.0/libinfineon_sh.so ...
Loading /opt/tools/cadence/installs/SPECTRE241/tools.lnx86/cmi/lib/64bit/5.0/libphilips_I_sh.so ...
Loading /opt/tools/cadence/installs/SPECTRE241/tools.lnx86/cmi/lib/64bit/5.0/libphilips_sh.so ...
Loading /opt/tools/cadence/installs/SPECTRE241/tools.lnx86/cmi/lib/64bit/5.0/libsparam_sh.so ...
Loading /opt/tools/cadence/installs/SPECTRE241/tools.lnx86/cmi/lib/64bit/5.0/libstmodels_sh.so ...

Warning from spectre.
    WARNING (SPECTRE-691): This CPU processor does not support x86 advanced vector extensions instructions. This may affect math operations and slow down the simulation.

Reading file:  /home/davidevi/Desktop/myproject/Sim/VGA/VGA_1_wakeup_tb/adexl/results/data/Interactive.107/3/wakeup/netlist/input.scs
Reading file:  /opt/pdk/ams/410/spectre/ams_range.lmts

Warning from spectre during read of parameter soft limits file `/opt/pdk/ams/410/spectre/ams_range.lmts', during circuit read-in.
    WARNING (SPECTRE-8360): line 1511: `ac' is an undefined primitive device.
    WARNING (SPECTRE-8360): line 1512: `ac' is an undefined primitive device.
    WARNING (SPECTRE-8360): line 1513: `ac' is an undefined primitive device.
    WARNING (SPECTRE-8360): line 1514: `ac' is an undefined primitive device.
    WARNING (SPECTRE-8360): line 1515: `ac' is an undefined primitive device.
        Further occurrences of this warning will be suppressed.

Reading file:  /opt/tools/cadence/installs/SPECTRE241/tools.lnx86/spectre/etc/configs/spectre.cfg
Reading file:  /opt/pdk/ams/410/spectre/c35/soac/soac.scs
Reading file:  /opt/pdk/ams/410/spectre/c35/soac/processOption.scs
Reading file:  /opt/pdk/ams/410/spectre/c35/soac/process.scs
Reading file:  /opt/pdk/ams/410/spectre/c35/soac/soac.va

Warning from spectre during AHDL read-in.
    WARNING (VACOMP-2435): The environment variable CDS_AHDLCMI_ENABLE is no longer supported. Therefore, the simulator will use the default compiled C code flow.

Reading link:  /opt/tools/cadence/installs/SPECTRE241/tools.lnx86/spectre/etc/ahdl/constants.h
Reading file:  /opt/tools/cadence/installs/SPECTRE241/tools.lnx86/spectre/etc/ahdl/constants.vams
Reading link:  /opt/tools/cadence/installs/SPECTRE241/tools.lnx86/spectre/etc/ahdl/discipline.h
Reading file:  /opt/tools/cadence/installs/SPECTRE241/tools.lnx86/spectre/etc/ahdl/disciplines.vams
Reading file:  /opt/pdk/ams/410/spectre/c35/processOption/C35B4C3.scs
Reading file:  /opt/pdk/ams/410/spectre/c35/soac/cmos53.scs
Reading file:  /opt/pdk/ams/410/spectre/c35/soac/res.scs
Reading file:  /opt/pdk/ams/410/spectre/c35/soac/cap.scs
Reading file:  /opt/pdk/ams/410/spectre/c35/soac/bip.scs
Reading file:  /opt/pdk/ams/410/spectre/c35/soac/ind.scs
Reading file:  /opt/pdk/ams/410/spectre/c35/soac/esddiode.scs
Time for NDB Parsing: CPU = 177.314 ms, elapsed = 367.42 ms.
Time accumulated: CPU = 381.691 ms, elapsed = 367.423 ms.
Peak resident memory used = 175 Mbytes.

Existing shared object for module modn_ahdl is up to date.
Installed compiled interface for modn_ahdl.
Existing shared object for module modp_ahdl is up to date.
Installed compiled interface for modp_ahdl.
Existing shared object for module cpoly_ahdl is up to date.
Installed compiled interface for cpoly_ahdl.
Existing shared object for module rpolyh_ahdl is up to date.
Installed compiled interface for rpolyh_ahdl.
Existing shared object for module bsource_19b458 is up to date.
Installed compiled interface for bsource_19b458.
Time for Elaboration: CPU = 43.964 ms, elapsed = 45.5101 ms.
Time accumulated: CPU = 425.816 ms, elapsed = 413.091 ms.
Peak resident memory used = 187 Mbytes.


Notice from spectre during hierarchy flattening.
    The value 'psf' specified for the 'checklimitdest' option will no longer be supported in future releases. Use 'spectre -h' to see other recommended values for the 'checklimitdest' option.


*****************************************************************************************
* 
* INFO: AMS_processOption = C35B4C3
* 
* INFO: Valid Modules  PIP VG5 HIRES
* 
*****************************************************************************************


Notice from spectre during hierarchy flattening.
    V8: `period' has the unusually large value of 100 s.


Time for EDB Visiting: CPU = 7.972 ms, elapsed = 8.00395 ms.
Time accumulated: CPU = 434.02 ms, elapsed = 421.321 ms.
Peak resident memory used = 189 Mbytes.

Loading /opt/tools/cadence/installs/SPECTRE241/tools.lnx86/mdl/lib/64bit/libSpectreEH_sh.so ...

Warning from spectre during initial setup.
    WARNING (SPECTRE-16460): SOAC_cvarm_vspsub:Specified subcircuit master `cvarm' was not found.
    WARNING (SPECTRE-16462): SOAC_cvarm_vspsub:Error in specification of subcircuit master. Assert is ignored.
    WARNING (SPECTRE-16460): SOAC_cvarm_vbs:Specified subcircuit master `cvarm' was not found.
    WARNING (SPECTRE-16462): SOAC_cvarm_vbs:Error in specification of subcircuit master. Assert is ignored.
    WARNING (SPECTRE-16460): SOAC_cvarm_vgb:Specified subcircuit master `cvarm' was not found.
    WARNING (SPECTRE-16462): SOAC_cvarm_vgb:Error in specification of subcircuit master. Assert is ignored.
    WARNING (SPECTRE-16460): SOAC_cvart_vspsub:Specified subcircuit master `cvart' was not found.
    WARNING (SPECTRE-16462): SOAC_cvart_vspsub:Error in specification of subcircuit master. Assert is ignored.
    WARNING (SPECTRE-16460): SOAC_cvart_vbs:Specified subcircuit master `cvart' was not found.
        Further occurrences of this warning will be suppressed.
    WARNING (SPECTRE-16462): SOAC_cvart_vbs:Error in specification of subcircuit master. Assert is ignored.
        Further occurrences of this warning will be suppressed.
Notice from spectre during topology check.
    Only one connection to the following 43 nodes:
        I0.MN6.psub!
        I0.MN5.psub!
        I0.MN4.psub!
        I0.MN3.psub!
        I0.MN2.psub!
        Further occurrences of this notice will be suppressed.
Notice from spectre during initial setup.
    Multithreading is disabled due to the size of the design being too small.


Netlist title:
        // Point Netlist Generated on: Apr 15 16:43:30 2026


Global user options:
         psfversion = 1.4.0
            vabstol = 1e-06
            iabstol = 1e-12
               temp = 85
           homotopy = 5
              limit = delta
         compatible = spice2
               gmin = 1e-12
             rforce = 1
           maxnotes = 5
           maxwarns = 5
             digits = 5
               cols = 80
             pivrel = 0.001
           sensfile = ../psf/sens.output
     checklimitdest = psf
     enable_pre_ver = yes
      ignorezerovar = yes
               save = allpub
             reltol = 0.0001
               tnom = 27
             scalem = 1
              scale = 1

Scoped user options:

Circuit inventory:
              nodes 88
            bsim3v3 35    
     bsource_19b458 2     
          capacitor 38    
         cpoly_ahdl 17    
            isource 1     
          modn_ahdl 19    
          modp_ahdl 16    
           resistor 1     
        rpolyh_ahdl 2     
            vsource 8     

Analysis and control statement inventory:
               info 7     
               tran 1     

Output statements:
             .probe 0     
           .measure 0     
               save 0     

Design checks inventory:
          paramtest 55    
             assert 175   


Notice from spectre during initial setup.
    APS enabled.
    1 notice suppressed.
    72 warnings suppressed.

Time for parsing: CPU = 18.907 ms, elapsed = 648.732 ms.
Time accumulated: CPU = 453.034 ms, elapsed = 1.07016 s.
Peak resident memory used = 196 Mbytes.

~~~~~~~~~~~~~~~~~~~~~~
Pre-Simulation Summary
~~~~~~~~~~~~~~~~~~~~~~
   -   (APS) Multi-threading. The recommended number of threads is 1, consider adding +mt=1 on command line.
~~~~~~~~~~~~~~~~~~~~~~

Notice from spectre during transient analysis `tran'.
    No checklimit analysis defined for asserts. A default checklimit analysis 'SpectreChecklimitAnal' has been created with all asserts enabled.


***********************************************
Transient Analysis `tran': time = (0 s -> 50 s)
***********************************************

Warning from spectre during check, during IC analysis, during transient analysis `tran'.
    WARNING (CMI-2943): Parameter checks have been ignored because the valid value for parameter 'trise' could not be found in 'C1'.
    WARNING (CMI-2943): Parameter checks have been ignored because the valid value for parameter 'trise' could not be found in 'I0.R2.CM'.
    WARNING (CMI-2943): Parameter checks have been ignored because the valid value for parameter 'trise' could not be found in 'I0.R2.CS1'.
    WARNING (CMI-2943): Parameter checks have been ignored because the valid value for parameter 'trise' could not be found in 'I0.R2.CS0'.
    WARNING (CMI-2943): Parameter checks have been ignored because the valid value for parameter 'trise' could not be found in 'I0.C3.C1'.
        Further occurrences of this warning will be suppressed.

Convergence achieved in 12 iterations.
DC simulation time: CPU = 2.906 ms, elapsed = 2.90608 ms.

Opening the PSF file ../psf/tran.tran.tran ...
Important parameter values:
    start = 0 s
    outputstart = 0 s
    stop = 50 s
    step = 50 ms
    maxstep = 500 ms
    ic = all
    useprevic = no
    skipdc = no
    reltol = 10e-06
    abstol(V) = 1 uV
    abstol(I) = 1 pA
    temp = 85 C
    tnom = 27 C
    tempeffects = all
    errpreset = conservative
    method = gear2only
    lteratio = 10
    relref = alllocal
    cmin = 0 F
    gmin = 1 pS
    rabsshort = 1 mOhm


Notice from spectre during transient analysis `tran'.
    Multithreading is disabled due to the size of the design being too small.


Output and IC/nodeset summary:
                 save   8       (current)
                 save   87      (voltage)

    tran: time = 1.254 s     (2.51 %), step = 106.1 ms     (212 m%)
    tran: time = 4.092 s     (8.18 %), step = 354 ms       (708 m%)
    tran: time = 6.319 s     (12.6 %), step = 500 ms          (1 %)
    tran: time = 8.819 s     (17.6 %), step = 500 ms          (1 %)
    tran: time = 11.32 s     (22.6 %), step = 500 ms          (1 %)
    tran: time = 13.82 s     (27.6 %), step = 500 ms          (1 %)
    tran: time = 16.32 s     (32.6 %), step = 500 ms          (1 %)
    tran: time = 18.82 s     (37.6 %), step = 500 ms          (1 %)
    tran: time = 21.32 s     (42.6 %), step = 500 ms          (1 %)
    tran: time = 23.82 s     (47.6 %), step = 500 ms          (1 %)
    tran: time = 26.32 s     (52.6 %), step = 500 ms          (1 %)
    tran: time = 28.82 s     (57.6 %), step = 500 ms          (1 %)
    tran: time = 31.32 s     (62.6 %), step = 500 ms          (1 %)
    tran: time = 33.82 s     (67.6 %), step = 500 ms          (1 %)
    tran: time = 36.32 s     (72.6 %), step = 500 ms          (1 %)
    tran: time = 38.82 s     (77.6 %), step = 500 ms          (1 %)
    tran: time = 41.32 s     (82.6 %), step = 500 ms          (1 %)
    tran: time = 43.82 s     (87.6 %), step = 500 ms          (1 %)
    tran: time = 46.32 s     (92.6 %), step = 500 ms          (1 %)
    tran: time = 48.82 s     (97.6 %), step = 500 ms          (1 %)
Number of accepted tran steps =             730

Maximum value achieved for any signal of each quantity: 
V: V(S<0>) = 3.3 V
I: I(V8:p) = 6.441 uA

~~~~~~~~~~~~~~~~~~~~~~~~~~~~~~~~~
Post-Transient Simulation Summary
~~~~~~~~~~~~~~~~~~~~~~~~~~~~~~~~~
   -   To further speed up simulation, consider
          add ++aps on command line
   -   Non-default settings that could significantly slow down simulation
          errpreset = conservative, default moderate
          reltol = 10e-06, default 100e-06 (conservative)
~~~~~~~~~~~~~~~~~~~~~~~~~~~~~~~~~


During simulation, the CPU load for active processors is :
         0 (12.1 %)      1 (11.3 %)      2 (100.0 %)     3 (11.4 %)
         4 (9.2 %)       5 (98.6 %)      6 (5.8 %)       7 (1.4 %)
         8 (10.1 %)      9 (2.9 %)      10 (2.2 %)      11 (6.5 %)
        12 (9.4 %)      13 (29.5 %)     14 (45.4 %)     15 (28.8 %)
        16 (65.0 %)     17 (5.0 %)      18 (12.9 %)     19 (25.5 %)
        20 (5.0 %)      21 (14.3 %)     22 (37.1 %)     23 (4.9 %)
        24 (18.8 %)     25 (31.4 %)     26 (19.3 %)     27 (30.0 %)
        28 (7.1 %)      29 (44.7 %)     30 (4.3 %)      31 (35.5 %)
        32 (50.0 %)     33 (8.6 %)      34 (17.3 %)     35 (10.1 %)
        36 (33.6 %)     37 (31.9 %)     38 (15.2 %)     39 (5.8 %)
        40 (40.4 %)     41 (5.8 %)      42 (8.6 %)      43 (8.6 %)
        44 (18.6 %)     45 (6.5 %)      46 (100.0 %)    47 (5.7 %)
        Total: 1111.9%
Initial condition solution time: CPU = 2.968 ms, elapsed = 2.97093 ms.
Intrinsic tran analysis time:    CPU = 397.736 ms, elapsed = 399.932 ms.
Total time required for tran analysis `tran': CPU = 484.186 ms, elapsed = 490.476 ms, util. = 98.7%.
Time accumulated: CPU = 960.929 ms, elapsed = 1.58538 s.
Peak resident memory used = 208 Mbytes.


Notice from spectre.
    12 warnings suppressed.

finalTimeOP: writing operating point information to rawfile.

Opening the PSF file ../psf/finalTimeOP.info ...
modelParameter: writing model parameter values to rawfile.

Opening the PSF file ../psf/modelParameter.info ...
element: writing instance parameter values to rawfile.

Opening the PSF file ../psf/element.info ...
outputParameter: writing output parameter values to rawfile.

Opening the PSF file ../psf/outputParameter.info ...
designParamVals: writing netlist parameters to rawfile.

Opening the PSFASCII file ../psf/designParamVals.info ...
primitives: writing primitives to rawfile.

Opening the PSFASCII file ../psf/primitives.info.primitives ...
subckts: writing subcircuits to rawfile.

Opening the PSFASCII file ../psf/subckts.info.subckts ...
Licensing Information:
Lic Summary:
[16:43:33.090104] Cdslmd servers:3000@lic08.ug.kth.se:29000@lic06.ug.kth.se
[16:43:33.614435] Feature usage summary:
[16:43:33.614435] Virtuoso_Multi_mode_Simulation


Aggregate audit (4:43:33 PM, Wed Apr 15, 2026):
Time used: CPU = 993 ms, elapsed = 1.63 s, util. = 61%.
Time spent in licensing: elapsed = 50.7 ms.
Peak memory used = 209 Mbytes.
Simulation started at: 4:43:31 PM, Wed Apr 15, 2026, ended at: 4:43:33 PM, Wed Apr 15, 2026, with elapsed time (wall clock): 1.63 s.
spectre completes with 0 errors, 22 warnings, and 10 notices.


********* LOG ENDS **************
**                             **
