
Spectre (R) Circuit Simulator
Version 24.1.0.288.isr5 64bit -- 3 Apr 2025
Copyright (C) 1989-2025 Cadence Design Systems, Inc. All rights reserved worldwide. Cadence and Spectre are registered trademarks of Cadence Design Systems, Inc. All others are the property of their respective holders.

Includes RSA BSAFE(R) Cryptographic or Security Protocol Software from RSA Security, Inc.

User: davidevi   Host: il2244vt26_davidevi   HostID: 11AC2C00   PID: 1026818
Memory  available: 3.0251 TB  physical: 3.2467 TB
Linux   : Rocky Linux release 8.10 (Green Obsidian)
CPU Type: Intel(R) Xeon(R) CPU E7-8857 v2 @ 3.00GHz
        Socket: Processors [Frequency]
        0:       0 [1200.0],  1 [1200.0],  2 [1200.0],  3 [1200.0],  4 [2999.9]
                 5 [2999.9],  6 [2800.0],  7 [1200.0],  8 [1200.0],  9 [2999.9]
                10 [2999.9], 11 [1200.0]
        1:      12 [1200.0], 13 [2999.9], 14 [2999.9], 15 [3600.0], 16 [1300.0]
                17 [2500.0], 18 [1200.0], 19 [2999.9], 20 [2700.0], 21 [2900.0]
                22 [1200.0], 23 [2600.0]
        2:      24 [1200.0], 25 [1200.0], 26 [1200.0], 27 [2700.0], 28 [2700.0]
                29 [2999.9], 30 [2999.9], 31 [1200.0], 32 [2600.0], 33 [3100.0]
                34 [2999.9], 35 [1600.0]
        3:      36 [3396.8], 37 [3384.7], 38 [1200.0], 39 [2500.0], 40 [2600.0]
                41 [3402.4], 42 [3395.4], 43 [3397.1], 44 [3380.6], 45 [3600.0]
                46 [3382.8], 47 [3397.1]
        
System load averages (1min, 5min, 15min) : 28.3 %, 25.6 %, 24.9 %
HPC is enabled


Simulating `input.scs' on il2244vt26_davidevi at 4:52:11 PM, Wed Apr 15, 2026 (process id: 1026818).
Current working directory: /home/davidevi/Desktop/myproject/Sim/VGA/VGA_1_wakeup_tb/adexl/results/data/MonteCarlo.0/15/wakeup/groupRunDataDir/netlist
Command line:
    /opt/tools/cadence/installs/SPECTRE241/tools/bin/spectre -64  \
        input.scs +escchars +log ../psf/spectre.out -format psfbin  \
        +rtsf -raw ../psf +aps +mt +lqtimeout 900 -maxw 5 -maxn 5  \
        +param /opt/pdk/ams/410/spectre/ams_range.lmts -env ade  \
        -ahdllibdir  \
        /home/davidevi/Desktop/myproject/Sim/VGA/VGA_1_wakeup_tb/adexl/results/data/MonteCarlo.0/sharedData/Job457/ahdl/input.ahdlSimDB  \
        +logstatus  \
        +adespetkn=0001089D13A302B663E41FB550AF0DF415A679A322D5069144BF588C12F604E07EF416DC01A319B562BB63D345D6039F45A376957B914DE24DE940D049C94F927ACE79D15D9175FF34986BDD0AF002BA50FD7FD707E002A700AC1C841AFC44E10EA979D12FF874D3349879D118F874D33498100EDAC2B6E95D47000036A3

Simulation Id: wLZXv5yq91jpwWNV
Licensing Information:
[16:52:11.121730] Configured Lic search path (24.01-s002): 3000@lic08.ug.kth.se:29000@lic06.ug.kth.se

Licensing Information:
[16:52:11.427218] Periodic Lic check successful

Loading /opt/tools/cadence/installs/SPECTRE241/tools.lnx86/cmi/lib/64bit/5.0/libinfineon_sh.so ...
Loading /opt/tools/cadence/installs/SPECTRE241/tools.lnx86/cmi/lib/64bit/5.0/libphilips_I_sh.so ...
Loading /opt/tools/cadence/installs/SPECTRE241/tools.lnx86/cmi/lib/64bit/5.0/libphilips_sh.so ...
Loading /opt/tools/cadence/installs/SPECTRE241/tools.lnx86/cmi/lib/64bit/5.0/libsparam_sh.so ...
Loading /opt/tools/cadence/installs/SPECTRE241/tools.lnx86/cmi/lib/64bit/5.0/libstmodels_sh.so ...

Warning from spectre.
    WARNING (SPECTRE-691): This CPU processor does not support x86 advanced vector extensions instructions. This may affect math operations and slow down the simulation.

Reading file:  /home/davidevi/Desktop/myproject/Sim/VGA/VGA_1_wakeup_tb/adexl/results/data/MonteCarlo.0/15/wakeup/groupRunDataDir/netlist/input.scs
Reading file:  /opt/pdk/ams/410/spectre/ams_range.lmts

Warning from spectre during read of parameter soft limits file `/opt/pdk/ams/410/spectre/ams_range.lmts', during circuit read-in.
    WARNING (SPECTRE-8360): line 1511: `ac' is an undefined primitive device.
    WARNING (SPECTRE-8360): line 1512: `ac' is an undefined primitive device.
    WARNING (SPECTRE-8360): line 1513: `ac' is an undefined primitive device.
    WARNING (SPECTRE-8360): line 1514: `ac' is an undefined primitive device.
    WARNING (SPECTRE-8360): line 1515: `ac' is an undefined primitive device.
        Further occurrences of this warning will be suppressed.

Reading file:  /opt/tools/cadence/installs/SPECTRE241/tools.lnx86/spectre/etc/configs/spectre.cfg
Reading file:  /opt/pdk/ams/410/spectre/c35/soac/soac.scs
Reading file:  /opt/pdk/ams/410/spectre/c35/soac/processOption.scs
Reading file:  /opt/pdk/ams/410/spectre/c35/soac/process.scs
Reading file:  /opt/pdk/ams/410/spectre/c35/soac/soac.va

Warning from spectre during AHDL read-in.
    WARNING (VACOMP-2435): The environment variable CDS_AHDLCMI_ENABLE is no longer supported. Therefore, the simulator will use the default compiled C code flow.

Reading link:  /opt/tools/cadence/installs/SPECTRE241/tools.lnx86/spectre/etc/ahdl/constants.h
Reading file:  /opt/tools/cadence/installs/SPECTRE241/tools.lnx86/spectre/etc/ahdl/constants.vams
Reading link:  /opt/tools/cadence/installs/SPECTRE241/tools.lnx86/spectre/etc/ahdl/discipline.h
Reading file:  /opt/tools/cadence/installs/SPECTRE241/tools.lnx86/spectre/etc/ahdl/disciplines.vams
Reading file:  /opt/pdk/ams/410/spectre/c35/processOption/C35B4C3.scs
Reading file:  /opt/pdk/ams/410/spectre/c35/soac/cmos53.scs
Reading file:  /opt/pdk/ams/410/spectre/c35/soac/res.scs
Reading file:  /opt/pdk/ams/410/spectre/c35/soac/cap.scs
Reading file:  /opt/pdk/ams/410/spectre/c35/soac/bip.scs
Reading file:  /opt/pdk/ams/410/spectre/c35/soac/ind.scs
Reading file:  /opt/pdk/ams/410/spectre/c35/soac/esddiode.scs
Time for NDB Parsing: CPU = 182.32 ms, elapsed = 361.03 ms.
Time accumulated: CPU = 386.815 ms, elapsed = 361.033 ms.
Peak resident memory used = 175 Mbytes.

Existing shared object for module modn_ahdl is up to date.
Installed compiled interface for modn_ahdl.
Existing shared object for module modp_ahdl is up to date.
Installed compiled interface for modp_ahdl.
Existing shared object for module cpoly_ahdl is up to date.
Installed compiled interface for cpoly_ahdl.
Existing shared object for module rpolyh_ahdl is up to date.
Installed compiled interface for rpolyh_ahdl.
Existing shared object for module bsource_19b458 is up to date.
Installed compiled interface for bsource_19b458.
Time for Elaboration: CPU = 59.228 ms, elapsed = 61.5969 ms.
Time accumulated: CPU = 446.338 ms, elapsed = 422.917 ms.
Peak resident memory used = 188 Mbytes.


Notice from spectre during hierarchy flattening.
    The value 'psf' specified for the 'checklimitdest' option will no longer be supported in future releases. Use 'spectre -h' to see other recommended values for the 'checklimitdest' option.


*****************************************************************************************
* 
* INFO: AMS_processOption = C35B4C3
* 
* INFO: Valid Modules  PIP VG5 HIRES
* 
*****************************************************************************************


Notice from spectre during hierarchy flattening.
    V8: `period' has the unusually large value of 100 s.


Time for EDB Visiting: CPU = 8.944 ms, elapsed = 8.94618 ms.
Time accumulated: CPU = 455.527 ms, elapsed = 432.106 ms.
Peak resident memory used = 191 Mbytes.

Loading /opt/tools/cadence/installs/SPECTRE241/tools.lnx86/mdl/lib/64bit/libSpectreEH_sh.so ...

Warning from spectre during initial setup.
    WARNING (SPECTRE-16460): SOAC_cvarm_vspsub:Specified subcircuit master `cvarm' was not found.
    WARNING (SPECTRE-16462): SOAC_cvarm_vspsub:Error in specification of subcircuit master. Assert is ignored.
    WARNING (SPECTRE-16460): SOAC_cvarm_vbs:Specified subcircuit master `cvarm' was not found.
    WARNING (SPECTRE-16462): SOAC_cvarm_vbs:Error in specification of subcircuit master. Assert is ignored.
    WARNING (SPECTRE-16460): SOAC_cvarm_vgb:Specified subcircuit master `cvarm' was not found.
    WARNING (SPECTRE-16462): SOAC_cvarm_vgb:Error in specification of subcircuit master. Assert is ignored.
    WARNING (SPECTRE-16460): SOAC_cvart_vspsub:Specified subcircuit master `cvart' was not found.
    WARNING (SPECTRE-16462): SOAC_cvart_vspsub:Error in specification of subcircuit master. Assert is ignored.
    WARNING (SPECTRE-16460): SOAC_cvart_vbs:Specified subcircuit master `cvart' was not found.
        Further occurrences of this warning will be suppressed.
    WARNING (SPECTRE-16462): SOAC_cvart_vbs:Error in specification of subcircuit master. Assert is ignored.
        Further occurrences of this warning will be suppressed.
Notice from spectre during topology check.
    Only one connection to the following 54 nodes:
        I0.MN6.psub!
        I0.MN5.psub!
        I0.MN4.psub!
        I0.MN3.psub!
        I0.MN2.psub!
        Further occurrences of this notice will be suppressed.
Notice from spectre during initial setup.
    Multithreading is disabled due to the size of the design being too small.


Netlist title:
        // Point Netlist Generated on: Apr 15 16:52:10 2026


Global user options:
         psfversion = 1.4.0
            vabstol = 1e-06
            iabstol = 1e-12
               temp = 85
           homotopy = 5
              limit = delta
         compatible = spice2
               gmin = 1e-12
             rforce = 1
           maxnotes = 5
           maxwarns = 5
             digits = 5
               cols = 80
             pivrel = 0.001
           sensfile = ../psf/sens.output
     checklimitdest = psf
     enable_pre_ver = yes
      ignorezerovar = yes
               save = allpub
             reltol = 0.0001
               tnom = 27
             scalem = 1
              scale = 1

Scoped user options:

Circuit inventory:
              nodes 88
            bsim3v3 35    
     bsource_19b458 2     
          capacitor 38    
         cpoly_ahdl 17    
            isource 1     
          modn_ahdl 19    
          modp_ahdl 16    
           resistor 1     
        rpolyh_ahdl 2     
            vsource 8     

Analysis and control statement inventory:
               info 7     
         montecarlo 1     
               tran 1     

Output statements:
             .probe 0     
           .measure 0     
               save 0     

Design checks inventory:
          paramtest 55    
             assert 175   


Notice from spectre during initial setup.
    APS enabled.
    1 notice suppressed.
    72 warnings suppressed.

Time for parsing: CPU = 18.677 ms, elapsed = 720.75 ms.
Time accumulated: CPU = 474.468 ms, elapsed = 1.15312 s.
Peak resident memory used = 198 Mbytes.

~~~~~~~~~~~~~~~~~~~~~~
Pre-Simulation Summary
~~~~~~~~~~~~~~~~~~~~~~
   -   (APS) Multi-threading. The recommended number of threads is 1, consider adding +mt=1 on command line.
~~~~~~~~~~~~~~~~~~~~~~

**************************************************
Monte Carlo Analysis `mc1': iteration = (1 -> 100)
**************************************************
Important parameter values:
    seed = 12345
    sampling = lds
    variations = all
    firstrun = 1
    numruns = 100
    nullmfactorcorrelation = no
    donominal = yes
    method = standard

**** Performing nominal run for `mc1'

Notice from spectre during transient analysis `tran', during Monte Carlo analysis `mc1'.
    No checklimit analysis defined for asserts. A default checklimit analysis 'SpectreChecklimitAnal' has been created with all asserts enabled.


***********************************************
Transient Analysis `tran': time = (0 s -> 50 s)
***********************************************

Warning from spectre during check, during IC analysis, during transient analysis `tran', during Monte Carlo analysis `mc1'.
    WARNING (CMI-2943): Parameter checks have been ignored because the valid value for parameter 'trise' could not be found in 'C1'.
    WARNING (CMI-2943): Parameter checks have been ignored because the valid value for parameter 'trise' could not be found in 'I0.R2.CM'.
    WARNING (CMI-2943): Parameter checks have been ignored because the valid value for parameter 'trise' could not be found in 'I0.R2.CS1'.
    WARNING (CMI-2943): Parameter checks have been ignored because the valid value for parameter 'trise' could not be found in 'I0.R2.CS0'.
    WARNING (CMI-2943): Parameter checks have been ignored because the valid value for parameter 'trise' could not be found in 'I0.C3.C1'.
        Further occurrences of this warning will be suppressed.

Convergence achieved in 12 iterations.
DC simulation time: CPU = 2.711 ms, elapsed = 2.71106 ms.

Opening the PSF file ../psf/nom/tran.tran.tran ...
Important parameter values:
    start = 0 s
    outputstart = 0 s
    stop = 50 s
    step = 50 ms
    maxstep = 500 ms
    ic = all
    useprevic = no
    skipdc = no
    reltol = 10e-06
    abstol(V) = 1 uV
    abstol(I) = 1 pA
    temp = 85 C
    tnom = 27 C
    tempeffects = all
    errpreset = conservative
    method = gear2only
    lteratio = 10
    relref = alllocal
    cmin = 0 F
    gmin = 1 pS
    rabsshort = 1 mOhm


Notice from spectre during transient analysis `tran', during Monte Carlo analysis `mc1'.
    Multithreading is disabled due to the size of the design being too small.


Output and IC/nodeset summary:
                 save   8       (current)
                 save   87      (voltage)

    tran: time = 1.335 s     (2.67 %), step = 108.2 ms     (216 m%)
    tran: time = 3.88 s      (7.76 %), step = 335.8 ms     (672 m%)
    tran: time = 6.553 s     (13.1 %), step = 500 ms          (1 %)
    tran: time = 9.053 s     (18.1 %), step = 500 ms          (1 %)
    tran: time = 11.55 s     (23.1 %), step = 500 ms          (1 %)
    tran: time = 14.05 s     (28.1 %), step = 500 ms          (1 %)
    tran: time = 16.55 s     (33.1 %), step = 500 ms          (1 %)
    tran: time = 19.05 s     (38.1 %), step = 500 ms          (1 %)
    tran: time = 21.55 s     (43.1 %), step = 500 ms          (1 %)
    tran: time = 24.05 s     (48.1 %), step = 500 ms          (1 %)
    tran: time = 26.55 s     (53.1 %), step = 500 ms          (1 %)
    tran: time = 29.05 s     (58.1 %), step = 500 ms          (1 %)
    tran: time = 31.55 s     (63.1 %), step = 500 ms          (1 %)
    tran: time = 34.05 s     (68.1 %), step = 500 ms          (1 %)
    tran: time = 36.55 s     (73.1 %), step = 500 ms          (1 %)
    tran: time = 39.05 s     (78.1 %), step = 500 ms          (1 %)
    tran: time = 41.55 s     (83.1 %), step = 500 ms          (1 %)
    tran: time = 44.05 s     (88.1 %), step = 500 ms          (1 %)
    tran: time = 46.55 s     (93.1 %), step = 500 ms          (1 %)
    tran: time = 49.05 s     (98.1 %), step = 500 ms          (1 %)
Number of accepted tran steps =             735

Maximum value achieved for any signal of each quantity: 
V: V(S<0>) = 3.3 V
I: I(V8:p) = 6.45 uA

~~~~~~~~~~~~~~~~~~~~~~~~~~~~~~~~~
Post-Transient Simulation Summary
~~~~~~~~~~~~~~~~~~~~~~~~~~~~~~~~~
   -   To further speed up simulation, consider
          add ++aps on command line
   -   Non-default settings that could significantly slow down simulation
          errpreset = conservative, default moderate
          reltol = 10e-06, default 100e-06 (conservative)
~~~~~~~~~~~~~~~~~~~~~~~~~~~~~~~~~


During simulation, the CPU load for active processors is :
         0 (32.2 %)      1 (5.6 %)       2 (27.7 %)      3 (44.2 %)
         4 (100.0 %)     5 (100.0 %)     6 (2.1 %)       7 (28.4 %)
         8 (12.9 %)      9 (26.8 %)     10 (96.6 %)     11 (14.1 %)
        12 (13.8 %)     13 (21.9 %)     14 (77.2 %)     15 (15.2 %)
        16 (27.9 %)     17 (33.6 %)     18 (7.6 %)      19 (49.0 %)
        20 (31.5 %)     21 (43.2 %)     22 (66.2 %)     23 (25.2 %)
        24 (8.8 %)      25 (32.7 %)     26 (27.4 %)     27 (38.8 %)
        28 (10.3 %)     29 (100.0 %)    30 (36.1 %)     31 (7.4 %)
        32 (31.0 %)     33 (43.8 %)     34 (21.4 %)     35 (15.0 %)
        36 (88.4 %)     37 (37.2 %)     38 (32.7 %)     40 (12.3 %)
        41 (4.8 %)      42 (37.4 %)     43 (21.8 %)     44 (19.6 %)
        45 (27.2 %)     46 (32.7 %)     47 (100.0 %)    
        Total: 1690.4%
Initial condition solution time: CPU = 2.755 ms, elapsed = 2.75612 ms.
Intrinsic tran analysis time:    CPU = 393.273 ms, elapsed = 394.637 ms.
Total time required for tran analysis `tran': CPU = 469.794 ms, elapsed = 473.887 ms, util. = 99.1%.
Time accumulated: CPU = 967.263 ms, elapsed = 1.65108 s.
Peak resident memory used = 209 Mbytes.


Notice from spectre during transient analysis `tran', during Monte Carlo analysis `mc1'.
    34 warnings suppressed.

finalTimeOP: writing operating point information to rawfile.

Opening the PSF file ../psf/nom/finalTimeOP.info ...
modelParameter: writing model parameter values to rawfile.

Opening the PSF file ../psf/nom/modelParameter.info ...
element: writing instance parameter values to rawfile.

Opening the PSF file ../psf/nom/element.info ...
outputParameter: writing output parameter values to rawfile.

Opening the PSF file ../psf/nom/outputParameter.info ...
designParamVals: writing netlist parameters to rawfile.

Opening the PSFASCII file ../psf/nom/designParamVals.info ...
primitives: writing primitives to rawfile.

Opening the PSFASCII file ../psf/nom/primitives.info.primitives ...
subckts: writing subcircuits to rawfile.

Opening the PSFASCII file ../psf/nom/subckts.info.subckts ...
Opening iteration number and data-directory mapping file:  /home/davidevi/Desktop/myproject/Sim/VGA/VGA_1_wakeup_tb/adexl/results/data/MonteCarlo.0/15/wakeup/groupRunDataDir/netlist/../psf/mc1.mapping

Statistical parameters:
    Defined process parameters: 629
    Defined mismatch parameters (subckt based): 86
    Non-referenced mismatch parameters: 80
    Number of random variables: 718
    Gaussian truncation for process parameters: 4.00 sigma
    Gaussian truncation for mismatch parameters: 4.00 sigma


Opening the PSF file ../psf/mc1_tran.montecarlo ...

Opening the PSF file ../psf/mc1_finalTimeOP.montecarlo ...

Opening the PSF file ../psf/mc1_modelParameter.montecarlo ...

Opening the PSF file ../psf/mc1_element.montecarlo ...

Opening the PSF file ../psf/mc1_outputParameter.montecarlo ...

Opening the PSF file ../psf/mc1_designParamVals.montecarlo ...

Opening the PSF file ../psf/mc1_primitives.montecarlo ...

Opening the PSF file ../psf/mc1_subckts.montecarlo ...

**** Performing monte carlo loop for `mc1'

1   0.00% 

*****************************************************************************************
* 
* INFO: AMS_processOption = C35B4C3
* 
* INFO: Valid Modules  PIP VG5 HIRES
* 
*****************************************************************************************


Notice from spectre at iteration = 1 during Monte Carlo analysis `mc1'.
    V8: `period' has the unusually large value of 100 s.


***********************************************
Transient Analysis `tran': time = (0 s -> 50 s)
***********************************************

Opening the PSF file ../psf/mc1_separate/001/tran.tran.tran ...

Warning from spectre at iteration = 1 during check, during IC analysis, during transient analysis `tran', during Monte Carlo analysis `mc1'.
    WARNING (CMI-2943): Parameter checks have been ignored because the valid value for parameter 'trise' could not be found in 'C1'.
    WARNING (CMI-2943): Parameter checks have been ignored because the valid value for parameter 'trise' could not be found in 'I0.R2.CM'.
    WARNING (CMI-2943): Parameter checks have been ignored because the valid value for parameter 'trise' could not be found in 'I0.R2.CS1'.
    WARNING (CMI-2943): Parameter checks have been ignored because the valid value for parameter 'trise' could not be found in 'I0.R2.CS0'.
    WARNING (CMI-2943): Parameter checks have been ignored because the valid value for parameter 'trise' could not be found in 'I0.C3.C1'.
        Further occurrences of this warning will be suppressed.

Convergence achieved in 12 iterations.
DC simulation time: CPU = 2.48 ms, elapsed = 2.48003 ms.
Important parameter values:
    start = 0 s
    outputstart = 0 s
    stop = 50 s
    step = 50 ms
    maxstep = 500 ms
    ic = all
    useprevic = no
    skipdc = no
    reltol = 10e-06
    abstol(V) = 1 uV
    abstol(I) = 1 pA
    temp = 85 C
    tnom = 27 C
    tempeffects = all
    errpreset = conservative
    method = gear2only
    lteratio = 10
    relref = alllocal
    cmin = 0 F
    gmin = 1 pS
    rabsshort = 1 mOhm


Notice from spectre at iteration = 1 during transient analysis `tran', during Monte Carlo analysis `mc1'.
    Multithreading is disabled due to the size of the design being too small.


Output and IC/nodeset summary:
                 save   8       (current)
                 save   87      (voltage)

    tran: time = 1.263 s     (2.53 %), step = 97.57 ms     (195 m%)
    tran: time = 3.902 s      (7.8 %), step = 334.5 ms     (669 m%)
    tran: time = 6.569 s     (13.1 %), step = 500 ms          (1 %)
    tran: time = 9.069 s     (18.1 %), step = 500 ms          (1 %)
    tran: time = 11.57 s     (23.1 %), step = 500 ms          (1 %)
    tran: time = 14.07 s     (28.1 %), step = 500 ms          (1 %)
    tran: time = 16.57 s     (33.1 %), step = 500 ms          (1 %)
    tran: time = 19.07 s     (38.1 %), step = 500 ms          (1 %)
    tran: time = 21.57 s     (43.1 %), step = 500 ms          (1 %)
    tran: time = 24.07 s     (48.1 %), step = 500 ms          (1 %)
    tran: time = 26.57 s     (53.1 %), step = 500 ms          (1 %)
    tran: time = 29.07 s     (58.1 %), step = 500 ms          (1 %)
    tran: time = 31.57 s     (63.1 %), step = 500 ms          (1 %)
    tran: time = 34.07 s     (68.1 %), step = 500 ms          (1 %)
    tran: time = 36.57 s     (73.1 %), step = 500 ms          (1 %)
    tran: time = 39.07 s     (78.1 %), step = 500 ms          (1 %)
    tran: time = 41.57 s     (83.1 %), step = 500 ms          (1 %)
    tran: time = 44.07 s     (88.1 %), step = 500 ms          (1 %)
    tran: time = 46.57 s     (93.1 %), step = 500 ms          (1 %)
    tran: time = 49.07 s     (98.1 %), step = 500 ms          (1 %)
Number of accepted tran steps =             741

Maximum value achieved for any signal of each quantity: 
V: V(S<0>) = 3.3 V
I: I(V8:p) = 6.379 uA

~~~~~~~~~~~~~~~~~~~~~~~~~~~~~~~~~
Post-Transient Simulation Summary
~~~~~~~~~~~~~~~~~~~~~~~~~~~~~~~~~
   -   To further speed up simulation, consider
          add ++aps on command line
   -   Non-default settings that could significantly slow down simulation
          errpreset = conservative, default moderate
          reltol = 10e-06, default 100e-06 (conservative)
~~~~~~~~~~~~~~~~~~~~~~~~~~~~~~~~~


During simulation, the CPU load for active processors is :
         0 (34.1 %)      1 (4.1 %)       2 (21.2 %)      3 (48.0 %)
         4 (100.0 %)     5 (100.0 %)     6 (3.5 %)       7 (21.2 %)
         8 (10.3 %)      9 (19.6 %)     10 (96.6 %)     11 (10.3 %)
        12 (14.2 %)     13 (36.8 %)     14 (61.0 %)     15 (11.5 %)
        16 (22.1 %)     17 (25.6 %)     18 (28.9 %)     19 (59.8 %)
        20 (24.9 %)     21 (32.0 %)     22 (55.8 %)     23 (23.8 %)
        24 (7.8 %)      25 (24.9 %)     26 (20.8 %)     27 (36.3 %)
        28 (8.0 %)      29 (100.0 %)    30 (26.7 %)     31 (6.4 %)
        32 (23.8 %)     33 (34.2 %)     34 (35.8 %)     35 (12.3 %)
        36 (71.6 %)     37 (31.9 %)     38 (24.8 %)     39 (2.0 %)
        40 (11.3 %)     41 (6.9 %)      42 (40.2 %)     43 (21.7 %)
        44 (15.3 %)     45 (24.4 %)     46 (35.8 %)     47 (100.0 %)
        Total: 1588.1%
Initial condition solution time: CPU = 2.524 ms, elapsed = 2.52604 ms.
Intrinsic tran analysis time:    CPU = 384.428 ms, elapsed = 385.727 ms.
Total time required for tran analysis `tran': CPU = 389.602 ms, elapsed = 391.484 ms, util. = 99.5%.
Time accumulated: CPU = 1.42719 s, elapsed = 2.1262 s.
Peak resident memory used = 213 Mbytes.


Notice from spectre during transient analysis `tran', during Monte Carlo analysis `mc1'.
    34 warnings suppressed.

finalTimeOP: writing operating point information to rawfile.

Opening the PSF file ../psf/mc1_separate/001/finalTimeOP.info ...
modelParameter: writing model parameter values to rawfile.

Opening the PSF file ../psf/mc1_separate/001/modelParameter.info ...
element: writing instance parameter values to rawfile.

Opening the PSF file ../psf/mc1_separate/001/element.info ...
outputParameter: writing output parameter values to rawfile.

Opening the PSF file ../psf/mc1_separate/001/outputParameter.info ...
designParamVals: writing netlist parameters to rawfile.

Opening the PSFASCII file ../psf/mc1_separate/001/designParamVals.info ...
primitives: writing primitives to rawfile.

Opening the PSFASCII file ../psf/mc1_separate/001/primitives.info.primitives ...
subckts: writing subcircuits to rawfile.

Opening the PSFASCII file ../psf/mc1_separate/001/subckts.info.subckts ...
2   1.01% 

*****************************************************************************************
* 
* INFO: AMS_processOption = C35B4C3
* 
* INFO: Valid Modules  PIP VG5 HIRES
* 
*****************************************************************************************


Notice from spectre during Monte Carlo analysis `mc1'.
    V8: `period' has the unusually large value of 100 s.


***********************************************
Transient Analysis `tran': time = (0 s -> 50 s)
***********************************************

Opening the PSF file ../psf/mc1_separate/002/tran.tran.tran ...

Warning from spectre during check, during IC analysis, during transient analysis `tran', during Monte Carlo analysis `mc1'.
    WARNING (CMI-2943): Parameter checks have been ignored because the valid value for parameter 'trise' could not be found in 'C1'.
    WARNING (CMI-2943): Parameter checks have been ignored because the valid value for parameter 'trise' could not be found in 'I0.R2.CM'.
    WARNING (CMI-2943): Parameter checks have been ignored because the valid value for parameter 'trise' could not be found in 'I0.R2.CS1'.
    WARNING (CMI-2943): Parameter checks have been ignored because the valid value for parameter 'trise' could not be found in 'I0.R2.CS0'.
    WARNING (CMI-2943): Parameter checks have been ignored because the valid value for parameter 'trise' could not be found in 'I0.C3.C1'.
        Further occurrences of this warning will be suppressed.

Convergence achieved in 12 iterations.
DC simulation time: CPU = 2.139 ms, elapsed = 2.14505 ms.
Important parameter values:
    start = 0 s
    outputstart = 0 s
    stop = 50 s
    step = 50 ms
    maxstep = 500 ms
    ic = all
    useprevic = no
    skipdc = no
    reltol = 10e-06
    abstol(V) = 1 uV
    abstol(I) = 1 pA
    temp = 85 C
    tnom = 27 C
    tempeffects = all
    errpreset = conservative
    method = gear2only
    lteratio = 10
    relref = alllocal
    cmin = 0 F
    gmin = 1 pS
    rabsshort = 1 mOhm


Notice from spectre during transient analysis `tran', during Monte Carlo analysis `mc1'.
    Multithreading is disabled due to the size of the design being too small.


Output and IC/nodeset summary:
                 save   8       (current)
                 save   87      (voltage)

    tran: time = 1.266 s     (2.53 %), step = 99.44 ms     (199 m%)
    tran: time = 3.952 s      (7.9 %), step = 340.1 ms     (680 m%)
    tran: time = 6.646 s     (13.3 %), step = 500 ms          (1 %)
    tran: time = 9.146 s     (18.3 %), step = 500 ms          (1 %)
    tran: time = 11.65 s     (23.3 %), step = 500 ms          (1 %)
    tran: time = 14.15 s     (28.3 %), step = 500 ms          (1 %)
    tran: time = 16.65 s     (33.3 %), step = 500 ms          (1 %)
    tran: time = 19.15 s     (38.3 %), step = 500 ms          (1 %)
    tran: time = 21.65 s     (43.3 %), step = 500 ms          (1 %)
    tran: time = 24.15 s     (48.3 %), step = 500 ms          (1 %)
    tran: time = 26.65 s     (53.3 %), step = 500 ms          (1 %)
    tran: time = 29.15 s     (58.3 %), step = 500 ms          (1 %)
    tran: time = 31.65 s     (63.3 %), step = 500 ms          (1 %)
    tran: time = 34.15 s     (68.3 %), step = 500 ms          (1 %)
    tran: time = 36.65 s     (73.3 %), step = 500 ms          (1 %)
    tran: time = 39.15 s     (78.3 %), step = 500 ms          (1 %)
    tran: time = 41.65 s     (83.3 %), step = 500 ms          (1 %)
    tran: time = 44.15 s     (88.3 %), step = 500 ms          (1 %)
    tran: time = 46.65 s     (93.3 %), step = 500 ms          (1 %)
    tran: time = 49.15 s     (98.3 %), step = 500 ms          (1 %)
Number of accepted tran steps =             742

Maximum value achieved for any signal of each quantity: 
V: V(S<0>) = 3.3 V
I: I(V8:p) = 6.402 uA

~~~~~~~~~~~~~~~~~~~~~~~~~~~~~~~~~
Post-Transient Simulation Summary
~~~~~~~~~~~~~~~~~~~~~~~~~~~~~~~~~
   -   To further speed up simulation, consider
          add ++aps on command line
   -   Non-default settings that could significantly slow down simulation
          errpreset = conservative, default moderate
          reltol = 10e-06, default 100e-06 (conservative)
~~~~~~~~~~~~~~~~~~~~~~~~~~~~~~~~~


During simulation, the CPU load for active processors is :
         0 (30.5 %)      1 (4.1 %)       2 (17.9 %)      3 (40.2 %)
         4 (100.0 %)     5 (100.0 %)     6 (3.3 %)       7 (17.9 %)
         8 (8.9 %)       9 (16.9 %)     10 (96.8 %)     11 (8.9 %)
        12 (14.9 %)     13 (46.3 %)     14 (53.2 %)     15 (9.9 %)
        16 (18.6 %)     17 (22.7 %)     18 (25.1 %)     19 (65.5 %)
        20 (21.5 %)     21 (26.5 %)     22 (47.0 %)     23 (22.0 %)
        24 (7.7 %)      25 (21.1 %)     26 (18.4 %)     27 (30.1 %)
        28 (7.0 %)      29 (100.0 %)    30 (22.4 %)     31 (6.5 %)
        32 (20.7 %)     33 (28.9 %)     34 (46.7 %)     35 (10.2 %)
        36 (69.0 %)     37 (28.6 %)     38 (21.2 %)     39 (12.9 %)
        40 (10.3 %)     41 (8.1 %)      42 (39.0 %)     43 (22.3 %)
        44 (15.9 %)     45 (21.0 %)     46 (34.3 %)     47 (100.0 %)
        Total: 1521.0%
Initial condition solution time: CPU = 2.174 ms, elapsed = 2.17986 ms.
Intrinsic tran analysis time:    CPU = 386.516 ms, elapsed = 387.79 ms.
Total time required for tran analysis `tran': CPU = 390.908 ms, elapsed = 392.812 ms, util. = 99.5%.
Time accumulated: CPU = 1.85443 s, elapsed = 2.56593 s.
Peak resident memory used = 213 Mbytes.


Notice from spectre during transient analysis `tran', during Monte Carlo analysis `mc1'.
    34 warnings suppressed.

finalTimeOP: writing operating point information to rawfile.

Opening the PSF file ../psf/mc1_separate/002/finalTimeOP.info ...
modelParameter: writing model parameter values to rawfile.

Opening the PSF file ../psf/mc1_separate/002/modelParameter.info ...
element: writing instance parameter values to rawfile.

Opening the PSF file ../psf/mc1_separate/002/element.info ...
outputParameter: writing output parameter values to rawfile.

Opening the PSF file ../psf/mc1_separate/002/outputParameter.info ...
designParamVals: writing netlist parameters to rawfile.

Opening the PSFASCII file ../psf/mc1_separate/002/designParamVals.info ...
primitives: writing primitives to rawfile.

Opening the PSFASCII file ../psf/mc1_separate/002/primitives.info.primitives ...
subckts: writing subcircuits to rawfile.

Opening the PSFASCII file ../psf/mc1_separate/002/subckts.info.subckts ...
3   2.02% 

*****************************************************************************************
* 
* INFO: AMS_processOption = C35B4C3
* 
* INFO: Valid Modules  PIP VG5 HIRES
* 
*****************************************************************************************


Notice from spectre during Monte Carlo analysis `mc1'.
    V8: `period' has the unusually large value of 100 s.


***********************************************
Transient Analysis `tran': time = (0 s -> 50 s)
***********************************************

Opening the PSF file ../psf/mc1_separate/003/tran.tran.tran ...

Warning from spectre during check, during IC analysis, during transient analysis `tran', during Monte Carlo analysis `mc1'.
    WARNING (CMI-2943): Parameter checks have been ignored because the valid value for parameter 'trise' could not be found in 'C1'.
    WARNING (CMI-2943): Parameter checks have been ignored because the valid value for parameter 'trise' could not be found in 'I0.R2.CM'.
    WARNING (CMI-2943): Parameter checks have been ignored because the valid value for parameter 'trise' could not be found in 'I0.R2.CS1'.
    WARNING (CMI-2943): Parameter checks have been ignored because the valid value for parameter 'trise' could not be found in 'I0.R2.CS0'.
    WARNING (CMI-2943): Parameter checks have been ignored because the valid value for parameter 'trise' could not be found in 'I0.C3.C1'.
        Further occurrences of this warning will be suppressed.

Convergence achieved in 12 iterations.
DC simulation time: CPU = 2.145 ms, elapsed = 2.14601 ms.
Important parameter values:
    start = 0 s
    outputstart = 0 s
    stop = 50 s
    step = 50 ms
    maxstep = 500 ms
    ic = all
    useprevic = no
    skipdc = no
    reltol = 10e-06
    abstol(V) = 1 uV
    abstol(I) = 1 pA
    temp = 85 C
    tnom = 27 C
    tempeffects = all
    errpreset = conservative
    method = gear2only
    lteratio = 10
    relref = alllocal
    cmin = 0 F
    gmin = 1 pS
    rabsshort = 1 mOhm


Notice from spectre during transient analysis `tran', during Monte Carlo analysis `mc1'.
    Multithreading is disabled due to the size of the design being too small.


Output and IC/nodeset summary:
                 save   8       (current)
                 save   87      (voltage)

    tran: time = 1.288 s     (2.58 %), step = 107.8 ms     (216 m%)
    tran: time = 3.821 s     (7.64 %), step = 334.2 ms     (668 m%)
    tran: time = 6.481 s       (13 %), step = 500 ms          (1 %)
    tran: time = 8.981 s       (18 %), step = 500 ms          (1 %)
    tran: time = 11.48 s       (23 %), step = 500 ms          (1 %)
    tran: time = 13.98 s       (28 %), step = 500 ms          (1 %)
    tran: time = 16.48 s       (33 %), step = 500 ms          (1 %)
    tran: time = 18.98 s       (38 %), step = 500 ms          (1 %)
    tran: time = 21.48 s       (43 %), step = 500 ms          (1 %)
    tran: time = 23.98 s       (48 %), step = 500 ms          (1 %)
    tran: time = 26.48 s       (53 %), step = 500 ms          (1 %)
    tran: time = 28.98 s       (58 %), step = 500 ms          (1 %)
    tran: time = 31.48 s       (63 %), step = 500 ms          (1 %)
    tran: time = 33.98 s       (68 %), step = 500 ms          (1 %)
    tran: time = 36.48 s       (73 %), step = 500 ms          (1 %)
    tran: time = 38.98 s       (78 %), step = 500 ms          (1 %)
    tran: time = 41.48 s       (83 %), step = 500 ms          (1 %)
    tran: time = 43.98 s       (88 %), step = 500 ms          (1 %)
    tran: time = 46.48 s       (93 %), step = 500 ms          (1 %)
    tran: time = 48.98 s       (98 %), step = 500 ms          (1 %)
Number of accepted tran steps =             739

Maximum value achieved for any signal of each quantity: 
V: V(S<0>) = 3.3 V
I: I(V8:p) = 6.321 uA

~~~~~~~~~~~~~~~~~~~~~~~~~~~~~~~~~
Post-Transient Simulation Summary
~~~~~~~~~~~~~~~~~~~~~~~~~~~~~~~~~
   -   To further speed up simulation, consider
          add ++aps on command line
   -   Non-default settings that could significantly slow down simulation
          errpreset = conservative, default moderate
          reltol = 10e-06, default 100e-06 (conservative)
~~~~~~~~~~~~~~~~~~~~~~~~~~~~~~~~~


During simulation, the CPU load for active processors is :
         0 (27.1 %)      1 (3.5 %)       2 (15.9 %)      3 (43.4 %)
         4 (100.0 %)     5 (91.8 %)      6 (2.8 %)       7 (15.3 %)
         8 (7.6 %)       9 (14.7 %)     10 (88.0 %)     11 (8.3 %)
        12 (25.9 %)     13 (40.8 %)     14 (47.1 %)     15 (8.8 %)
        16 (22.6 %)     17 (20.0 %)     18 (21.8 %)     19 (58.7 %)
        20 (19.6 %)     21 (23.7 %)     22 (53.3 %)     23 (19.3 %)
        24 (7.3 %)      25 (27.7 %)     26 (17.0 %)     27 (27.4 %)
        28 (6.6 %)      29 (100.0 %)    30 (19.5 %)     31 (11.1 %)
        32 (18.3 %)     33 (26.0 %)     34 (53.6 %)     35 (9.1 %)
        36 (61.0 %)     37 (25.3 %)     38 (18.8 %)     39 (12.6 %)
        40 (11.5 %)     41 (9.0 %)      42 (33.4 %)     43 (21.5 %)
        44 (14.6 %)     45 (18.5 %)     46 (40.6 %)     47 (100.0 %)
        Total: 1470.5%
Initial condition solution time: CPU = 2.21 ms, elapsed = 2.21109 ms.
Intrinsic tran analysis time:    CPU = 384.989 ms, elapsed = 386.481 ms.
Total time required for tran analysis `tran': CPU = 389.473 ms, elapsed = 391.578 ms, util. = 99.5%.
Time accumulated: CPU = 2.28036 s, elapsed = 3.00339 s.
Peak resident memory used = 213 Mbytes.


Notice from spectre during transient analysis `tran', during Monte Carlo analysis `mc1'.
    34 warnings suppressed.

finalTimeOP: writing operating point information to rawfile.

Opening the PSF file ../psf/mc1_separate/003/finalTimeOP.info ...
modelParameter: writing model parameter values to rawfile.

Opening the PSF file ../psf/mc1_separate/003/modelParameter.info ...
element: writing instance parameter values to rawfile.

Opening the PSF file ../psf/mc1_separate/003/element.info ...
outputParameter: writing output parameter values to rawfile.

Opening the PSF file ../psf/mc1_separate/003/outputParameter.info ...
designParamVals: writing netlist parameters to rawfile.

Opening the PSFASCII file ../psf/mc1_separate/003/designParamVals.info ...
primitives: writing primitives to rawfile.

Opening the PSFASCII file ../psf/mc1_separate/003/primitives.info.primitives ...
subckts: writing subcircuits to rawfile.

Opening the PSFASCII file ../psf/mc1_separate/003/subckts.info.subckts ...
4   3.03% 

*****************************************************************************************
* 
* INFO: AMS_processOption = C35B4C3
* 
* INFO: Valid Modules  PIP VG5 HIRES
* 
*****************************************************************************************


Notice from spectre during Monte Carlo analysis `mc1'.
    V8: `period' has the unusually large value of 100 s.


***********************************************
Transient Analysis `tran': time = (0 s -> 50 s)
***********************************************

Opening the PSF file ../psf/mc1_separate/004/tran.tran.tran ...

Warning from spectre during check, during IC analysis, during transient analysis `tran', during Monte Carlo analysis `mc1'.
    WARNING (CMI-2943): Parameter checks have been ignored because the valid value for parameter 'trise' could not be found in 'C1'.
    WARNING (CMI-2943): Parameter checks have been ignored because the valid value for parameter 'trise' could not be found in 'I0.R2.CM'.
    WARNING (CMI-2943): Parameter checks have been ignored because the valid value for parameter 'trise' could not be found in 'I0.R2.CS1'.
    WARNING (CMI-2943): Parameter checks have been ignored because the valid value for parameter 'trise' could not be found in 'I0.R2.CS0'.
    WARNING (CMI-2943): Parameter checks have been ignored because the valid value for parameter 'trise' could not be found in 'I0.C3.C1'.
        Further occurrences of this warning will be suppressed.

Convergence achieved in 12 iterations.
DC simulation time: CPU = 2.178 ms, elapsed = 2.17819 ms.
Important parameter values:
    start = 0 s
    outputstart = 0 s
    stop = 50 s
    step = 50 ms
    maxstep = 500 ms
    ic = all
    useprevic = no
    skipdc = no
    reltol = 10e-06
    abstol(V) = 1 uV
    abstol(I) = 1 pA
    temp = 85 C
    tnom = 27 C
    tempeffects = all
    errpreset = conservative
    method = gear2only
    lteratio = 10
    relref = alllocal
    cmin = 0 F
    gmin = 1 pS
    rabsshort = 1 mOhm


Notice from spectre during transient analysis `tran', during Monte Carlo analysis `mc1'.
    Multithreading is disabled due to the size of the design being too small.


Output and IC/nodeset summary:
                 save   8       (current)
                 save   87      (voltage)

    tran: time = 1.264 s     (2.53 %), step = 106.5 ms     (213 m%)
    tran: time = 3.768 s     (7.54 %), step = 330.4 ms     (661 m%)
    tran: time = 6.407 s     (12.8 %), step = 500 ms          (1 %)
    tran: time = 8.907 s     (17.8 %), step = 500 ms          (1 %)
    tran: time = 11.41 s     (22.8 %), step = 500 ms          (1 %)
    tran: time = 13.91 s     (27.8 %), step = 500 ms          (1 %)
    tran: time = 16.41 s     (32.8 %), step = 500 ms          (1 %)
    tran: time = 18.91 s     (37.8 %), step = 500 ms          (1 %)
    tran: time = 21.41 s     (42.8 %), step = 500 ms          (1 %)
    tran: time = 23.91 s     (47.8 %), step = 500 ms          (1 %)
    tran: time = 26.41 s     (52.8 %), step = 500 ms          (1 %)
    tran: time = 28.91 s     (57.8 %), step = 500 ms          (1 %)
    tran: time = 31.41 s     (62.8 %), step = 500 ms          (1 %)
    tran: time = 33.91 s     (67.8 %), step = 500 ms          (1 %)
    tran: time = 36.41 s     (72.8 %), step = 500 ms          (1 %)
    tran: time = 38.91 s     (77.8 %), step = 500 ms          (1 %)
    tran: time = 41.41 s     (82.8 %), step = 500 ms          (1 %)
    tran: time = 43.91 s     (87.8 %), step = 500 ms          (1 %)
    tran: time = 46.41 s     (92.8 %), step = 500 ms          (1 %)
    tran: time = 48.91 s     (97.8 %), step = 500 ms          (1 %)
Number of accepted tran steps =             745

Maximum value achieved for any signal of each quantity: 
V: V(S<0>) = 3.3 V
I: I(V8:p) = 6.543 uA

~~~~~~~~~~~~~~~~~~~~~~~~~~~~~~~~~
Post-Transient Simulation Summary
~~~~~~~~~~~~~~~~~~~~~~~~~~~~~~~~~
   -   To further speed up simulation, consider
          add ++aps on command line
   -   Non-default settings that could significantly slow down simulation
          errpreset = conservative, default moderate
          reltol = 10e-06, default 100e-06 (conservative)
~~~~~~~~~~~~~~~~~~~~~~~~~~~~~~~~~


During simulation, the CPU load for active processors is :
         0 (23.6 %)      1 (3.4 %)       2 (14.1 %)      3 (50.6 %)
         4 (100.0 %)     5 (80.4 %)      6 (2.4 %)       7 (13.6 %)
         8 (6.6 %)       9 (16.7 %)     10 (77.2 %)     11 (13.5 %)
        12 (27.0 %)     13 (37.1 %)     14 (42.1 %)     15 (8.8 %)
        16 (31.6 %)     17 (18.0 %)     18 (22.4 %)     19 (58.8 %)
        20 (20.1 %)     21 (25.7 %)     22 (58.6 %)     23 (21.0 %)
        24 (6.9 %)      25 (33.2 %)     26 (15.4 %)     27 (23.9 %)
        28 (5.8 %)      29 (100.0 %)    30 (17.9 %)     31 (22.8 %)
        32 (16.3 %)     33 (22.7 %)     34 (59.6 %)     35 (8.2 %)
        36 (53.5 %)     37 (23.9 %)     38 (28.8 %)     39 (13.7 %)
        40 (10.3 %)     41 (9.9 %)      42 (29.6 %)     43 (19.6 %)
        44 (13.3 %)     45 (16.7 %)     46 (36.7 %)     47 (98.8 %)
        Total: 1460.8%
Initial condition solution time: CPU = 2.218 ms, elapsed = 2.21896 ms.
Intrinsic tran analysis time:    CPU = 387.434 ms, elapsed = 388.652 ms.
Total time required for tran analysis `tran': CPU = 391.856 ms, elapsed = 393.62 ms, util. = 99.6%.
Time accumulated: CPU = 2.70845 s, elapsed = 3.44306 s.
Peak resident memory used = 214 Mbytes.


Notice from spectre during transient analysis `tran', during Monte Carlo analysis `mc1'.
    34 warnings suppressed.

finalTimeOP: writing operating point information to rawfile.

Opening the PSF file ../psf/mc1_separate/004/finalTimeOP.info ...
modelParameter: writing model parameter values to rawfile.

Opening the PSF file ../psf/mc1_separate/004/modelParameter.info ...
element: writing instance parameter values to rawfile.

Opening the PSF file ../psf/mc1_separate/004/element.info ...
outputParameter: writing output parameter values to rawfile.

Opening the PSF file ../psf/mc1_separate/004/outputParameter.info ...
designParamVals: writing netlist parameters to rawfile.

Opening the PSFASCII file ../psf/mc1_separate/004/designParamVals.info ...
primitives: writing primitives to rawfile.

Opening the PSFASCII file ../psf/mc1_separate/004/primitives.info.primitives ...
subckts: writing subcircuits to rawfile.

Opening the PSFASCII file ../psf/mc1_separate/004/subckts.info.subckts ...
    mc1: iteration = 4           (3.03 %), step = 1            (1.01 %)
5   4.04% 

*****************************************************************************************
* 
* INFO: AMS_processOption = C35B4C3
* 
* INFO: Valid Modules  PIP VG5 HIRES
* 
*****************************************************************************************


Notice from spectre during Monte Carlo analysis `mc1'.
    V8: `period' has the unusually large value of 100 s.


***********************************************
Transient Analysis `tran': time = (0 s -> 50 s)
***********************************************

Opening the PSF file ../psf/mc1_separate/005/tran.tran.tran ...

Warning from spectre during check, during IC analysis, during transient analysis `tran', during Monte Carlo analysis `mc1'.
    WARNING (CMI-2943): Parameter checks have been ignored because the valid value for parameter 'trise' could not be found in 'C1'.
    WARNING (CMI-2943): Parameter checks have been ignored because the valid value for parameter 'trise' could not be found in 'I0.R2.CM'.
    WARNING (CMI-2943): Parameter checks have been ignored because the valid value for parameter 'trise' could not be found in 'I0.R2.CS1'.
    WARNING (CMI-2943): Parameter checks have been ignored because the valid value for parameter 'trise' could not be found in 'I0.R2.CS0'.
    WARNING (CMI-2943): Parameter checks have been ignored because the valid value for parameter 'trise' could not be found in 'I0.C3.C1'.
        Further occurrences of this warning will be suppressed.

Convergence achieved in 12 iterations.
DC simulation time: CPU = 2.304 ms, elapsed = 2.30503 ms.
Important parameter values:
    start = 0 s
    outputstart = 0 s
    stop = 50 s
    step = 50 ms
    maxstep = 500 ms
    ic = all
    useprevic = no
    skipdc = no
    reltol = 10e-06
    abstol(V) = 1 uV
    abstol(I) = 1 pA
    temp = 85 C
    tnom = 27 C
    tempeffects = all
    errpreset = conservative
    method = gear2only
    lteratio = 10
    relref = alllocal
    cmin = 0 F
    gmin = 1 pS
    rabsshort = 1 mOhm


Notice from spectre during transient analysis `tran', during Monte Carlo analysis `mc1'.
    Multithreading is disabled due to the size of the design being too small.


Output and IC/nodeset summary:
                 save   8       (current)
                 save   87      (voltage)

    tran: time = 1.34 s      (2.68 %), step = 106.8 ms     (214 m%)
    tran: time = 3.854 s     (7.71 %), step = 332.1 ms     (664 m%)
    tran: time = 6.51 s        (13 %), step = 500 ms          (1 %)
    tran: time = 9.01 s        (18 %), step = 500 ms          (1 %)
    tran: time = 11.51 s       (23 %), step = 500 ms          (1 %)
    tran: time = 14.01 s       (28 %), step = 500 ms          (1 %)
    tran: time = 16.51 s       (33 %), step = 500 ms          (1 %)
    tran: time = 19.01 s       (38 %), step = 500 ms          (1 %)
    tran: time = 21.51 s       (43 %), step = 500 ms          (1 %)
    tran: time = 24.01 s       (48 %), step = 500 ms          (1 %)
    tran: time = 26.51 s       (53 %), step = 500 ms          (1 %)
    tran: time = 29.01 s       (58 %), step = 500 ms          (1 %)
    tran: time = 31.51 s       (63 %), step = 500 ms          (1 %)
    tran: time = 34.01 s       (68 %), step = 500 ms          (1 %)
    tran: time = 36.51 s       (73 %), step = 500 ms          (1 %)
    tran: time = 39.01 s       (78 %), step = 500 ms          (1 %)
    tran: time = 41.51 s       (83 %), step = 500 ms          (1 %)
    tran: time = 44.01 s       (88 %), step = 500 ms          (1 %)
    tran: time = 46.51 s       (93 %), step = 500 ms          (1 %)
    tran: time = 49.01 s       (98 %), step = 500 ms          (1 %)
Number of accepted tran steps =             740

Maximum value achieved for any signal of each quantity: 
V: V(S<0>) = 3.3 V
I: I(V8:p) = 6.469 uA

~~~~~~~~~~~~~~~~~~~~~~~~~~~~~~~~~
Post-Transient Simulation Summary
~~~~~~~~~~~~~~~~~~~~~~~~~~~~~~~~~
   -   To further speed up simulation, consider
          add ++aps on command line
   -   Non-default settings that could significantly slow down simulation
          errpreset = conservative, default moderate
          reltol = 10e-06, default 100e-06 (conservative)
~~~~~~~~~~~~~~~~~~~~~~~~~~~~~~~~~


During simulation, the CPU load for active processors is :
         0 (21.4 %)      1 (3.5 %)       2 (12.8 %)      3 (55.9 %)
         4 (100.0 %)     5 (71.5 %)      6 (2.4 %)       7 (12.7 %)
         8 (6.4 %)       9 (26.4 %)     10 (68.5 %)     11 (12.0 %)
        12 (28.5 %)     13 (41.3 %)     14 (37.7 %)     15 (8.1 %)
        16 (28.3 %)     17 (16.3 %)     18 (22.7 %)     19 (63.3 %)
        20 (18.1 %)     21 (23.3 %)     22 (52.5 %)     23 (29.4 %)
        24 (6.9 %)      25 (33.5 %)     26 (14.2 %)     27 (22.3 %)
        28 (5.9 %)      29 (100.0 %)    30 (16.1 %)     31 (31.6 %)
        32 (15.5 %)     33 (21.4 %)     34 (63.9 %)     35 (7.5 %)
        36 (52.4 %)     37 (24.8 %)     38 (36.5 %)     39 (16.0 %)
        40 (10.5 %)     41 (19.1 %)     42 (27.1 %)     43 (17.9 %)
        44 (11.8 %)     45 (15.3 %)     46 (33.2 %)     47 (89.5 %)
        Total: 1456.0%
Initial condition solution time: CPU = 2.345 ms, elapsed = 2.34699 ms.
Intrinsic tran analysis time:    CPU = 388.921 ms, elapsed = 390.271 ms.
Total time required for tran analysis `tran': CPU = 393.67 ms, elapsed = 395.615 ms, util. = 99.5%.
Time accumulated: CPU = 3.13764 s, elapsed = 3.88334 s.
Peak resident memory used = 214 Mbytes.


Notice from spectre during transient analysis `tran', during Monte Carlo analysis `mc1'.
    34 warnings suppressed.

finalTimeOP: writing operating point information to rawfile.

Opening the PSF file ../psf/mc1_separate/005/finalTimeOP.info ...
modelParameter: writing model parameter values to rawfile.

Opening the PSF file ../psf/mc1_separate/005/modelParameter.info ...
element: writing instance parameter values to rawfile.

Opening the PSF file ../psf/mc1_separate/005/element.info ...
outputParameter: writing output parameter values to rawfile.

Opening the PSF file ../psf/mc1_separate/005/outputParameter.info ...
designParamVals: writing netlist parameters to rawfile.

Opening the PSFASCII file ../psf/mc1_separate/005/designParamVals.info ...
primitives: writing primitives to rawfile.

Opening the PSFASCII file ../psf/mc1_separate/005/primitives.info.primitives ...
subckts: writing subcircuits to rawfile.

Opening the PSFASCII file ../psf/mc1_separate/005/subckts.info.subckts ...
    mc1: iteration = 5           (4.04 %), step = 1            (1.01 %)
6   5.05% 

*****************************************************************************************
* 
* INFO: AMS_processOption = C35B4C3
* 
* INFO: Valid Modules  PIP VG5 HIRES
* 
*****************************************************************************************


Notice from spectre during Monte Carlo analysis `mc1'.
    V8: `period' has the unusually large value of 100 s.


***********************************************
Transient Analysis `tran': time = (0 s -> 50 s)
***********************************************

Opening the PSF file ../psf/mc1_separate/006/tran.tran.tran ...

Warning from spectre during check, during IC analysis, during transient analysis `tran', during Monte Carlo analysis `mc1'.
    WARNING (CMI-2943): Parameter checks have been ignored because the valid value for parameter 'trise' could not be found in 'C1'.
    WARNING (CMI-2943): Parameter checks have been ignored because the valid value for parameter 'trise' could not be found in 'I0.R2.CM'.
    WARNING (CMI-2943): Parameter checks have been ignored because the valid value for parameter 'trise' could not be found in 'I0.R2.CS1'.
    WARNING (CMI-2943): Parameter checks have been ignored because the valid value for parameter 'trise' could not be found in 'I0.R2.CS0'.
    WARNING (CMI-2943): Parameter checks have been ignored because the valid value for parameter 'trise' could not be found in 'I0.C3.C1'.
        Further occurrences of this warning will be suppressed.

Convergence achieved in 12 iterations.
DC simulation time: CPU = 2.32 ms, elapsed = 2.321 ms.
Important parameter values:
    start = 0 s
    outputstart = 0 s
    stop = 50 s
    step = 50 ms
    maxstep = 500 ms
    ic = all
    useprevic = no
    skipdc = no
    reltol = 10e-06
    abstol(V) = 1 uV
    abstol(I) = 1 pA
    temp = 85 C
    tnom = 27 C
    tempeffects = all
    errpreset = conservative
    method = gear2only
    lteratio = 10
    relref = alllocal
    cmin = 0 F
    gmin = 1 pS
    rabsshort = 1 mOhm


Notice from spectre during transient analysis `tran', during Monte Carlo analysis `mc1'.
    Multithreading is disabled due to the size of the design being too small.


Output and IC/nodeset summary:
                 save   8       (current)
                 save   87      (voltage)

    tran: time = 1.36 s      (2.72 %), step = 112 ms       (224 m%)
    tran: time = 3.992 s     (7.98 %), step = 346.8 ms     (694 m%)
    tran: time = 6.713 s     (13.4 %), step = 500 ms          (1 %)
    tran: time = 9.213 s     (18.4 %), step = 500 ms          (1 %)
    tran: time = 11.71 s     (23.4 %), step = 500 ms          (1 %)
    tran: time = 14.21 s     (28.4 %), step = 500 ms          (1 %)
    tran: time = 16.71 s     (33.4 %), step = 500 ms          (1 %)
    tran: time = 19.21 s     (38.4 %), step = 500 ms          (1 %)
    tran: time = 21.71 s     (43.4 %), step = 500 ms          (1 %)
    tran: time = 24.21 s     (48.4 %), step = 500 ms          (1 %)
    tran: time = 26.71 s     (53.4 %), step = 500 ms          (1 %)
    tran: time = 29.21 s     (58.4 %), step = 500 ms          (1 %)
    tran: time = 31.71 s     (63.4 %), step = 500 ms          (1 %)
    tran: time = 34.21 s     (68.4 %), step = 500 ms          (1 %)
    tran: time = 36.71 s     (73.4 %), step = 500 ms          (1 %)
    tran: time = 39.21 s     (78.4 %), step = 500 ms          (1 %)
    tran: time = 41.71 s     (83.4 %), step = 500 ms          (1 %)
    tran: time = 44.21 s     (88.4 %), step = 500 ms          (1 %)
    tran: time = 46.71 s     (93.4 %), step = 500 ms          (1 %)
    tran: time = 49.21 s     (98.4 %), step = 500 ms          (1 %)
Number of accepted tran steps =             744

Maximum value achieved for any signal of each quantity: 
V: V(S<0>) = 3.3 V
I: I(V8:p) = 6.494 uA

~~~~~~~~~~~~~~~~~~~~~~~~~~~~~~~~~
Post-Transient Simulation Summary
~~~~~~~~~~~~~~~~~~~~~~~~~~~~~~~~~
   -   To further speed up simulation, consider
          add ++aps on command line
   -   Non-default settings that could significantly slow down simulation
          errpreset = conservative, default moderate
          reltol = 10e-06, default 100e-06 (conservative)
~~~~~~~~~~~~~~~~~~~~~~~~~~~~~~~~~


During simulation, the CPU load for active processors is :
         0 (19.7 %)      1 (3.4 %)       2 (11.9 %)      3 (60.4 %)
         4 (100.0 %)     5 (64.3 %)      6 (2.4 %)       7 (11.5 %)
         8 (6.2 %)       9 (34.2 %)     10 (61.9 %)     11 (11.2 %)
        12 (27.8 %)     13 (47.3 %)     14 (34.5 %)     15 (7.7 %)
        16 (26.0 %)     17 (15.8 %)     18 (29.4 %)     19 (64.6 %)
        20 (18.8 %)     21 (21.1 %)     22 (47.3 %)     23 (32.0 %)
        24 (6.7 %)      25 (30.9 %)     26 (13.4 %)     27 (20.3 %)
        28 (5.8 %)      29 (100.0 %)    30 (15.3 %)     31 (32.2 %)
        32 (20.8 %)     33 (20.3 %)     34 (67.5 %)     35 (8.4 %)
        36 (50.5 %)     37 (25.3 %)     38 (43.0 %)     39 (18.4 %)
        40 (9.9 %)      41 (17.7 %)     42 (25.2 %)     43 (16.9 %)
        44 (11.5 %)     45 (14.2 %)     46 (33.5 %)     47 (89.9 %)
        Total: 1456.9%
Initial condition solution time: CPU = 2.36 ms, elapsed = 2.36082 ms.
Intrinsic tran analysis time:    CPU = 390.977 ms, elapsed = 392.182 ms.
Total time required for tran analysis `tran': CPU = 395.673 ms, elapsed = 397.387 ms, util. = 99.6%.
Time accumulated: CPU = 3.57328 s, elapsed = 4.3304 s.
Peak resident memory used = 214 Mbytes.


Notice from spectre during transient analysis `tran', during Monte Carlo analysis `mc1'.
    34 warnings suppressed.

finalTimeOP: writing operating point information to rawfile.

Opening the PSF file ../psf/mc1_separate/006/finalTimeOP.info ...
modelParameter: writing model parameter values to rawfile.

Opening the PSF file ../psf/mc1_separate/006/modelParameter.info ...
element: writing instance parameter values to rawfile.

Opening the PSF file ../psf/mc1_separate/006/element.info ...
outputParameter: writing output parameter values to rawfile.

Opening the PSF file ../psf/mc1_separate/006/outputParameter.info ...
designParamVals: writing netlist parameters to rawfile.

Opening the PSFASCII file ../psf/mc1_separate/006/designParamVals.info ...
primitives: writing primitives to rawfile.

Opening the PSFASCII file ../psf/mc1_separate/006/primitives.info.primitives ...
subckts: writing subcircuits to rawfile.

Opening the PSFASCII file ../psf/mc1_separate/006/subckts.info.subckts ...
    mc1: iteration = 6           (5.05 %), step = 1            (1.01 %)
7   6.06% 

*****************************************************************************************
* 
* INFO: AMS_processOption = C35B4C3
* 
* INFO: Valid Modules  PIP VG5 HIRES
* 
*****************************************************************************************


Notice from spectre during Monte Carlo analysis `mc1'.
    V8: `period' has the unusually large value of 100 s.


***********************************************
Transient Analysis `tran': time = (0 s -> 50 s)
***********************************************

Opening the PSF file ../psf/mc1_separate/007/tran.tran.tran ...

Warning from spectre during check, during IC analysis, during transient analysis `tran', during Monte Carlo analysis `mc1'.
    WARNING (CMI-2943): Parameter checks have been ignored because the valid value for parameter 'trise' could not be found in 'C1'.
    WARNING (CMI-2943): Parameter checks have been ignored because the valid value for parameter 'trise' could not be found in 'I0.R2.CM'.
    WARNING (CMI-2943): Parameter checks have been ignored because the valid value for parameter 'trise' could not be found in 'I0.R2.CS1'.
    WARNING (CMI-2943): Parameter checks have been ignored because the valid value for parameter 'trise' could not be found in 'I0.R2.CS0'.
    WARNING (CMI-2943): Parameter checks have been ignored because the valid value for parameter 'trise' could not be found in 'I0.C3.C1'.
        Further occurrences of this warning will be suppressed.

Convergence achieved in 12 iterations.
DC simulation time: CPU = 2.38 ms, elapsed = 2.38681 ms.
Important parameter values:
    start = 0 s
    outputstart = 0 s
    stop = 50 s
    step = 50 ms
    maxstep = 500 ms
    ic = all
    useprevic = no
    skipdc = no
    reltol = 10e-06
    abstol(V) = 1 uV
    abstol(I) = 1 pA
    temp = 85 C
    tnom = 27 C
    tempeffects = all
    errpreset = conservative
    method = gear2only
    lteratio = 10
    relref = alllocal
    cmin = 0 F
    gmin = 1 pS
    rabsshort = 1 mOhm


Notice from spectre during transient analysis `tran', during Monte Carlo analysis `mc1'.
    Multithreading is disabled due to the size of the design being too small.


Output and IC/nodeset summary:
                 save   8       (current)
                 save   87      (voltage)

    tran: time = 1.301 s      (2.6 %), step = 104.4 ms     (209 m%)
    tran: time = 3.76 s      (7.52 %), step = 325 ms       (650 m%)
    tran: time = 6.377 s     (12.8 %), step = 500 ms          (1 %)
    tran: time = 8.877 s     (17.8 %), step = 500 ms          (1 %)
    tran: time = 11.38 s     (22.8 %), step = 500 ms          (1 %)
    tran: time = 13.88 s     (27.8 %), step = 500 ms          (1 %)
    tran: time = 16.38 s     (32.8 %), step = 500 ms          (1 %)
    tran: time = 18.88 s     (37.8 %), step = 500 ms          (1 %)
    tran: time = 21.38 s     (42.8 %), step = 500 ms          (1 %)
    tran: time = 23.88 s     (47.8 %), step = 500 ms          (1 %)
    tran: time = 26.38 s     (52.8 %), step = 500 ms          (1 %)
    tran: time = 28.88 s     (57.8 %), step = 500 ms          (1 %)
    tran: time = 31.38 s     (62.8 %), step = 500 ms          (1 %)
    tran: time = 33.88 s     (67.8 %), step = 500 ms          (1 %)
    tran: time = 36.38 s     (72.8 %), step = 500 ms          (1 %)
    tran: time = 38.88 s     (77.8 %), step = 500 ms          (1 %)
    tran: time = 41.38 s     (82.8 %), step = 500 ms          (1 %)
    tran: time = 43.88 s     (87.8 %), step = 500 ms          (1 %)
    tran: time = 46.38 s     (92.8 %), step = 500 ms          (1 %)
    tran: time = 48.88 s     (97.8 %), step = 500 ms          (1 %)
Number of accepted tran steps =             743

Maximum value achieved for any signal of each quantity: 
V: V(S<0>) = 3.3 V
I: I(V8:p) = 6.423 uA

~~~~~~~~~~~~~~~~~~~~~~~~~~~~~~~~~
Post-Transient Simulation Summary
~~~~~~~~~~~~~~~~~~~~~~~~~~~~~~~~~
   -   To further speed up simulation, consider
          add ++aps on command line
   -   Non-default settings that could significantly slow down simulation
          errpreset = conservative, default moderate
          reltol = 10e-06, default 100e-06 (conservative)
~~~~~~~~~~~~~~~~~~~~~~~~~~~~~~~~~


During simulation, the CPU load for active processors is :
         0 (18.5 %)      1 (3.1 %)       2 (11.0 %)      3 (56.1 %)
         4 (100.0 %)     5 (66.2 %)      6 (2.2 %)       7 (10.6 %)
         8 (5.8 %)       9 (40.4 %)     10 (56.4 %)     11 (11.0 %)
        12 (27.3 %)     13 (50.5 %)     14 (33.3 %)     15 (7.2 %)
        16 (23.5 %)     17 (14.5 %)     18 (27.9 %)     19 (67.7 %)
        20 (17.4 %)     21 (19.2 %)     22 (44.4 %)     23 (29.4 %)
        24 (6.5 %)      25 (28.2 %)     26 (12.2 %)     27 (19.0 %)
        28 (5.7 %)      29 (100.0 %)    30 (14.1 %)     31 (29.5 %)
        32 (28.2 %)     33 (20.0 %)     34 (70.3 %)     35 (8.1 %)
        36 (48.4 %)     37 (29.7 %)     38 (44.4 %)     39 (22.3 %)
        40 (10.7 %)     41 (19.2 %)     42 (25.9 %)     43 (16.6 %)
        44 (13.9 %)     45 (13.3 %)     46 (31.9 %)     47 (82.3 %)
        Total: 1444.4%
Initial condition solution time: CPU = 2.418 ms, elapsed = 2.42591 ms.
Intrinsic tran analysis time:    CPU = 388.287 ms, elapsed = 389.556 ms.
Total time required for tran analysis `tran': CPU = 392.891 ms, elapsed = 394.823 ms, util. = 99.5%.
Time accumulated: CPU = 4.00189 s, elapsed = 4.77123 s.
Peak resident memory used = 214 Mbytes.


Notice from spectre during transient analysis `tran', during Monte Carlo analysis `mc1'.
    34 warnings suppressed.

finalTimeOP: writing operating point information to rawfile.

Opening the PSF file ../psf/mc1_separate/007/finalTimeOP.info ...
modelParameter: writing model parameter values to rawfile.

Opening the PSF file ../psf/mc1_separate/007/modelParameter.info ...
element: writing instance parameter values to rawfile.

Opening the PSF file ../psf/mc1_separate/007/element.info ...
outputParameter: writing output parameter values to rawfile.

Opening the PSF file ../psf/mc1_separate/007/outputParameter.info ...
designParamVals: writing netlist parameters to rawfile.

Opening the PSFASCII file ../psf/mc1_separate/007/designParamVals.info ...
primitives: writing primitives to rawfile.

Opening the PSFASCII file ../psf/mc1_separate/007/primitives.info.primitives ...
subckts: writing subcircuits to rawfile.

Opening the PSFASCII file ../psf/mc1_separate/007/subckts.info.subckts ...
    mc1: iteration = 7           (6.06 %), step = 1            (1.01 %)
8   7.07% 

*****************************************************************************************
* 
* INFO: AMS_processOption = C35B4C3
* 
* INFO: Valid Modules  PIP VG5 HIRES
* 
*****************************************************************************************


Notice from spectre during Monte Carlo analysis `mc1'.
    V8: `period' has the unusually large value of 100 s.


***********************************************
Transient Analysis `tran': time = (0 s -> 50 s)
***********************************************

Opening the PSF file ../psf/mc1_separate/008/tran.tran.tran ...

Warning from spectre during check, during IC analysis, during transient analysis `tran', during Monte Carlo analysis `mc1'.
    WARNING (CMI-2943): Parameter checks have been ignored because the valid value for parameter 'trise' could not be found in 'C1'.
    WARNING (CMI-2943): Parameter checks have been ignored because the valid value for parameter 'trise' could not be found in 'I0.R2.CM'.
    WARNING (CMI-2943): Parameter checks have been ignored because the valid value for parameter 'trise' could not be found in 'I0.R2.CS1'.
    WARNING (CMI-2943): Parameter checks have been ignored because the valid value for parameter 'trise' could not be found in 'I0.R2.CS0'.
    WARNING (CMI-2943): Parameter checks have been ignored because the valid value for parameter 'trise' could not be found in 'I0.C3.C1'.
        Further occurrences of this warning will be suppressed.

Convergence achieved in 12 iterations.
DC simulation time: CPU = 2.189 ms, elapsed = 2.18916 ms.
Important parameter values:
    start = 0 s
    outputstart = 0 s
    stop = 50 s
    step = 50 ms
    maxstep = 500 ms
    ic = all
    useprevic = no
    skipdc = no
    reltol = 10e-06
    abstol(V) = 1 uV
    abstol(I) = 1 pA
    temp = 85 C
    tnom = 27 C
    tempeffects = all
    errpreset = conservative
    method = gear2only
    lteratio = 10
    relref = alllocal
    cmin = 0 F
    gmin = 1 pS
    rabsshort = 1 mOhm


Notice from spectre during transient analysis `tran', during Monte Carlo analysis `mc1'.
    Multithreading is disabled due to the size of the design being too small.


Output and IC/nodeset summary:
                 save   8       (current)
                 save   87      (voltage)

    tran: time = 1.358 s     (2.72 %), step = 108.3 ms     (217 m%)
    tran: time = 3.907 s     (7.81 %), step = 336.5 ms     (673 m%)
    tran: time = 6.584 s     (13.2 %), step = 500 ms          (1 %)
    tran: time = 9.084 s     (18.2 %), step = 500 ms          (1 %)
    tran: time = 11.58 s     (23.2 %), step = 500 ms          (1 %)
    tran: time = 14.08 s     (28.2 %), step = 500 ms          (1 %)
    tran: time = 16.58 s     (33.2 %), step = 500 ms          (1 %)
    tran: time = 19.08 s     (38.2 %), step = 500 ms          (1 %)
    tran: time = 21.58 s     (43.2 %), step = 500 ms          (1 %)
    tran: time = 24.08 s     (48.2 %), step = 500 ms          (1 %)
    tran: time = 26.58 s     (53.2 %), step = 500 ms          (1 %)
    tran: time = 29.08 s     (58.2 %), step = 500 ms          (1 %)
    tran: time = 31.58 s     (63.2 %), step = 500 ms          (1 %)
    tran: time = 34.08 s     (68.2 %), step = 500 ms          (1 %)
    tran: time = 36.58 s     (73.2 %), step = 500 ms          (1 %)
    tran: time = 39.08 s     (78.2 %), step = 500 ms          (1 %)
    tran: time = 41.58 s     (83.2 %), step = 500 ms          (1 %)
    tran: time = 44.08 s     (88.2 %), step = 500 ms          (1 %)
    tran: time = 46.58 s     (93.2 %), step = 500 ms          (1 %)
    tran: time = 49.08 s     (98.2 %), step = 500 ms          (1 %)
Number of accepted tran steps =             743

Maximum value achieved for any signal of each quantity: 
V: V(S<0>) = 3.3 V
I: I(V8:p) = 6.453 uA

~~~~~~~~~~~~~~~~~~~~~~~~~~~~~~~~~
Post-Transient Simulation Summary
~~~~~~~~~~~~~~~~~~~~~~~~~~~~~~~~~
   -   To further speed up simulation, consider
          add ++aps on command line
   -   Non-default settings that could significantly slow down simulation
          errpreset = conservative, default moderate
          reltol = 10e-06, default 100e-06 (conservative)
~~~~~~~~~~~~~~~~~~~~~~~~~~~~~~~~~


During simulation, the CPU load for active processors is :
         0 (17.1 %)      1 (7.0 %)       2 (10.3 %)      3 (53.9 %)
         4 (100.0 %)     5 (69.1 %)      6 (2.8 %)       7 (12.8 %)
         8 (5.3 %)       9 (45.7 %)     10 (51.7 %)     11 (11.4 %)
        12 (27.0 %)     13 (46.8 %)     14 (38.7 %)     15 (6.8 %)
        16 (22.2 %)     17 (13.6 %)     18 (27.9 %)     19 (66.9 %)
        20 (15.9 %)     21 (18.7 %)     22 (43.6 %)     23 (27.4 %)
        24 (6.5 %)      25 (26.0 %)     26 (11.7 %)     27 (25.7 %)
        28 (5.6 %)      29 (100.0 %)    30 (13.1 %)     31 (27.2 %)
        32 (30.2 %)     33 (22.5 %)     34 (65.3 %)     35 (7.6 %)
        36 (48.6 %)     37 (33.2 %)     38 (40.7 %)     39 (28.9 %)
        40 (10.1 %)     41 (24.4 %)     42 (23.9 %)     43 (16.5 %)
        44 (13.1 %)     45 (12.2 %)     46 (29.4 %)     47 (75.2 %)
        Total: 1440.1%
Initial condition solution time: CPU = 2.237 ms, elapsed = 2.23804 ms.
Intrinsic tran analysis time:    CPU = 398.892 ms, elapsed = 400.793 ms.
Total time required for tran analysis `tran': CPU = 403.469 ms, elapsed = 406.308 ms, util. = 99.3%.
Time accumulated: CPU = 4.4422 s, elapsed = 5.22448 s.
Peak resident memory used = 214 Mbytes.


Notice from spectre during transient analysis `tran', during Monte Carlo analysis `mc1'.
    34 warnings suppressed.

finalTimeOP: writing operating point information to rawfile.

Opening the PSF file ../psf/mc1_separate/008/finalTimeOP.info ...
modelParameter: writing model parameter values to rawfile.

Opening the PSF file ../psf/mc1_separate/008/modelParameter.info ...
element: writing instance parameter values to rawfile.

Opening the PSF file ../psf/mc1_separate/008/element.info ...
outputParameter: writing output parameter values to rawfile.

Opening the PSF file ../psf/mc1_separate/008/outputParameter.info ...
designParamVals: writing netlist parameters to rawfile.

Opening the PSFASCII file ../psf/mc1_separate/008/designParamVals.info ...
primitives: writing primitives to rawfile.

Opening the PSFASCII file ../psf/mc1_separate/008/primitives.info.primitives ...
subckts: writing subcircuits to rawfile.

Opening the PSFASCII file ../psf/mc1_separate/008/subckts.info.subckts ...
    mc1: iteration = 8           (7.07 %), step = 1            (1.01 %)
9   8.08% 

*****************************************************************************************
* 
* INFO: AMS_processOption = C35B4C3
* 
* INFO: Valid Modules  PIP VG5 HIRES
* 
*****************************************************************************************


Notice from spectre during Monte Carlo analysis `mc1'.
    V8: `period' has the unusually large value of 100 s.


***********************************************
Transient Analysis `tran': time = (0 s -> 50 s)
***********************************************

Opening the PSF file ../psf/mc1_separate/009/tran.tran.tran ...

Warning from spectre during check, during IC analysis, during transient analysis `tran', during Monte Carlo analysis `mc1'.
    WARNING (CMI-2943): Parameter checks have been ignored because the valid value for parameter 'trise' could not be found in 'C1'.
    WARNING (CMI-2943): Parameter checks have been ignored because the valid value for parameter 'trise' could not be found in 'I0.R2.CM'.
    WARNING (CMI-2943): Parameter checks have been ignored because the valid value for parameter 'trise' could not be found in 'I0.R2.CS1'.
    WARNING (CMI-2943): Parameter checks have been ignored because the valid value for parameter 'trise' could not be found in 'I0.R2.CS0'.
    WARNING (CMI-2943): Parameter checks have been ignored because the valid value for parameter 'trise' could not be found in 'I0.C3.C1'.
        Further occurrences of this warning will be suppressed.

Convergence achieved in 12 iterations.
DC simulation time: CPU = 2.21 ms, elapsed = 2.2099 ms.
Important parameter values:
    start = 0 s
    outputstart = 0 s
    stop = 50 s
    step = 50 ms
    maxstep = 500 ms
    ic = all
    useprevic = no
    skipdc = no
    reltol = 10e-06
    abstol(V) = 1 uV
    abstol(I) = 1 pA
    temp = 85 C
    tnom = 27 C
    tempeffects = all
    errpreset = conservative
    method = gear2only
    lteratio = 10
    relref = alllocal
    cmin = 0 F
    gmin = 1 pS
    rabsshort = 1 mOhm


Notice from spectre during transient analysis `tran', during Monte Carlo analysis `mc1'.
    Multithreading is disabled due to the size of the design being too small.


Output and IC/nodeset summary:
                 save   8       (current)
                 save   87      (voltage)

    tran: time = 1.301 s      (2.6 %), step = 98.69 ms     (197 m%)
    tran: time = 3.971 s     (7.94 %), step = 338.4 ms     (677 m%)
    tran: time = 6.656 s     (13.3 %), step = 500 ms          (1 %)
    tran: time = 9.156 s     (18.3 %), step = 500 ms          (1 %)
    tran: time = 11.66 s     (23.3 %), step = 500 ms          (1 %)
    tran: time = 14.16 s     (28.3 %), step = 500 ms          (1 %)
    tran: time = 16.66 s     (33.3 %), step = 500 ms          (1 %)
    tran: time = 19.16 s     (38.3 %), step = 500 ms          (1 %)
    tran: time = 21.66 s     (43.3 %), step = 500 ms          (1 %)
    tran: time = 24.16 s     (48.3 %), step = 500 ms          (1 %)
    tran: time = 26.66 s     (53.3 %), step = 500 ms          (1 %)
    tran: time = 29.16 s     (58.3 %), step = 500 ms          (1 %)
    tran: time = 31.66 s     (63.3 %), step = 500 ms          (1 %)
    tran: time = 34.16 s     (68.3 %), step = 500 ms          (1 %)
    tran: time = 36.66 s     (73.3 %), step = 500 ms          (1 %)
    tran: time = 39.16 s     (78.3 %), step = 500 ms          (1 %)
    tran: time = 41.66 s     (83.3 %), step = 500 ms          (1 %)
    tran: time = 44.16 s     (88.3 %), step = 500 ms          (1 %)
    tran: time = 46.66 s     (93.3 %), step = 500 ms          (1 %)
    tran: time = 49.16 s     (98.3 %), step = 500 ms          (1 %)
Number of accepted tran steps =             746

Maximum value achieved for any signal of each quantity: 
V: V(S<0>) = 3.3 V
I: I(V8:p) = 6.33 uA

~~~~~~~~~~~~~~~~~~~~~~~~~~~~~~~~~
Post-Transient Simulation Summary
~~~~~~~~~~~~~~~~~~~~~~~~~~~~~~~~~
   -   To further speed up simulation, consider
          add ++aps on command line
   -   Non-default settings that could significantly slow down simulation
          errpreset = conservative, default moderate
          reltol = 10e-06, default 100e-06 (conservative)
~~~~~~~~~~~~~~~~~~~~~~~~~~~~~~~~~


During simulation, the CPU load for active processors is :
         0 (18.9 %)      1 (13.4 %)      2 (9.4 %)       3 (51.8 %)
         4 (100.0 %)     5 (71.2 %)      6 (3.1 %)       7 (12.7 %)
         8 (5.8 %)       9 (50.1 %)     10 (48.5 %)     11 (12.3 %)
        12 (27.2 %)     13 (44.2 %)     14 (40.4 %)     15 (9.7 %)
        16 (20.7 %)     17 (13.0 %)     18 (30.1 %)     19 (63.0 %)
        20 (14.8 %)     21 (17.3 %)     22 (48.2 %)     23 (25.4 %)
        24 (6.5 %)      25 (24.5 %)     26 (10.8 %)     27 (31.8 %)
        28 (5.5 %)      29 (100.0 %)    30 (12.0 %)     31 (25.0 %)
        32 (28.0 %)     33 (28.8 %)     34 (60.3 %)     35 (7.1 %)
        36 (45.8 %)     37 (38.4 %)     38 (37.9 %)     39 (34.4 %)
        40 (9.9 %)      41 (25.7 %)     42 (26.5 %)     43 (15.2 %)
        44 (13.1 %)     45 (11.3 %)     46 (27.4 %)     47 (69.7 %)
        Total: 1446.4%
Initial condition solution time: CPU = 2.247 ms, elapsed = 2.24996 ms.
Intrinsic tran analysis time:    CPU = 400.389 ms, elapsed = 401.414 ms.
Total time required for tran analysis `tran': CPU = 404.973 ms, elapsed = 406.521 ms, util. = 99.6%.
Time accumulated: CPU = 4.88471 s, elapsed = 5.67875 s.
Peak resident memory used = 214 Mbytes.


Notice from spectre during transient analysis `tran', during Monte Carlo analysis `mc1'.
    34 warnings suppressed.

finalTimeOP: writing operating point information to rawfile.

Opening the PSF file ../psf/mc1_separate/009/finalTimeOP.info ...
modelParameter: writing model parameter values to rawfile.

Opening the PSF file ../psf/mc1_separate/009/modelParameter.info ...
element: writing instance parameter values to rawfile.

Opening the PSF file ../psf/mc1_separate/009/element.info ...
outputParameter: writing output parameter values to rawfile.

Opening the PSF file ../psf/mc1_separate/009/outputParameter.info ...
designParamVals: writing netlist parameters to rawfile.

Opening the PSFASCII file ../psf/mc1_separate/009/designParamVals.info ...
primitives: writing primitives to rawfile.

Opening the PSFASCII file ../psf/mc1_separate/009/primitives.info.primitives ...
subckts: writing subcircuits to rawfile.

Opening the PSFASCII file ../psf/mc1_separate/009/subckts.info.subckts ...
    mc1: iteration = 9           (8.08 %), step = 1            (1.01 %)
10   9.09% 

*****************************************************************************************
* 
* INFO: AMS_processOption = C35B4C3
* 
* INFO: Valid Modules  PIP VG5 HIRES
* 
*****************************************************************************************


Notice from spectre during Monte Carlo analysis `mc1'.
    V8: `period' has the unusually large value of 100 s.


***********************************************
Transient Analysis `tran': time = (0 s -> 50 s)
***********************************************

Opening the PSF file ../psf/mc1_separate/010/tran.tran.tran ...

Warning from spectre during check, during IC analysis, during transient analysis `tran', during Monte Carlo analysis `mc1'.
    WARNING (CMI-2943): Parameter checks have been ignored because the valid value for parameter 'trise' could not be found in 'C1'.
    WARNING (CMI-2943): Parameter checks have been ignored because the valid value for parameter 'trise' could not be found in 'I0.R2.CM'.
    WARNING (CMI-2943): Parameter checks have been ignored because the valid value for parameter 'trise' could not be found in 'I0.R2.CS1'.
    WARNING (CMI-2943): Parameter checks have been ignored because the valid value for parameter 'trise' could not be found in 'I0.R2.CS0'.
    WARNING (CMI-2943): Parameter checks have been ignored because the valid value for parameter 'trise' could not be found in 'I0.C3.C1'.
        Further occurrences of this warning will be suppressed.

Convergence achieved in 12 iterations.
DC simulation time: CPU = 2.169 ms, elapsed = 2.17009 ms.
Important parameter values:
    start = 0 s
    outputstart = 0 s
    stop = 50 s
    step = 50 ms
    maxstep = 500 ms
    ic = all
    useprevic = no
    skipdc = no
    reltol = 10e-06
    abstol(V) = 1 uV
    abstol(I) = 1 pA
    temp = 85 C
    tnom = 27 C
    tempeffects = all
    errpreset = conservative
    method = gear2only
    lteratio = 10
    relref = alllocal
    cmin = 0 F
    gmin = 1 pS
    rabsshort = 1 mOhm


Notice from spectre during transient analysis `tran', during Monte Carlo analysis `mc1'.
    Multithreading is disabled due to the size of the design being too small.


Output and IC/nodeset summary:
                 save   8       (current)
                 save   87      (voltage)

    tran: time = 1.252 s      (2.5 %), step = 103.4 ms     (207 m%)
    tran: time = 4.037 s     (8.07 %), step = 351.6 ms     (703 m%)
    tran: time = 6.279 s     (12.6 %), step = 500 ms          (1 %)
    tran: time = 8.779 s     (17.6 %), step = 500 ms          (1 %)
    tran: time = 11.28 s     (22.6 %), step = 500 ms          (1 %)
    tran: time = 13.78 s     (27.6 %), step = 500 ms          (1 %)
    tran: time = 16.28 s     (32.6 %), step = 500 ms          (1 %)
    tran: time = 18.78 s     (37.6 %), step = 500 ms          (1 %)
    tran: time = 21.28 s     (42.6 %), step = 500 ms          (1 %)
    tran: time = 23.78 s     (47.6 %), step = 500 ms          (1 %)
    tran: time = 26.28 s     (52.6 %), step = 500 ms          (1 %)
    tran: time = 28.78 s     (57.6 %), step = 500 ms          (1 %)
[...]


***********************************************
Transient Analysis `tran': time = (0 s -> 50 s)
***********************************************

Opening the PSF file ../psf/mc1_separate/098/tran.tran.tran ...

Warning from spectre during check, during IC analysis, during transient analysis `tran', during Monte Carlo analysis `mc1'.
    WARNING (CMI-2943): Parameter checks have been ignored because the valid value for parameter 'trise' could not be found in 'C1'.
    WARNING (CMI-2943): Parameter checks have been ignored because the valid value for parameter 'trise' could not be found in 'I0.R2.CM'.
    WARNING (CMI-2943): Parameter checks have been ignored because the valid value for parameter 'trise' could not be found in 'I0.R2.CS1'.
    WARNING (CMI-2943): Parameter checks have been ignored because the valid value for parameter 'trise' could not be found in 'I0.R2.CS0'.
    WARNING (CMI-2943): Parameter checks have been ignored because the valid value for parameter 'trise' could not be found in 'I0.C3.C1'.
        Further occurrences of this warning will be suppressed.

Convergence achieved in 12 iterations.
DC simulation time: CPU = 2.218 ms, elapsed = 2.22611 ms.
Important parameter values:
    start = 0 s
    outputstart = 0 s
    stop = 50 s
    step = 50 ms
    maxstep = 500 ms
    ic = all
    useprevic = no
    skipdc = no
    reltol = 10e-06
    abstol(V) = 1 uV
    abstol(I) = 1 pA
    temp = 85 C
    tnom = 27 C
    tempeffects = all
    errpreset = conservative
    method = gear2only
    lteratio = 10
    relref = alllocal
    cmin = 0 F
    gmin = 1 pS
    rabsshort = 1 mOhm


Notice from spectre during transient analysis `tran', during Monte Carlo analysis `mc1'.
    Multithreading is disabled due to the size of the design being too small.


Output and IC/nodeset summary:
                 save   8       (current)
                 save   87      (voltage)

    tran: time = 1.283 s     (2.57 %), step = 103 ms       (206 m%)
    tran: time = 4.062 s     (8.12 %), step = 351.2 ms     (702 m%)
    tran: time = 6.304 s     (12.6 %), step = 500 ms          (1 %)
    tran: time = 8.804 s     (17.6 %), step = 500 ms          (1 %)
    tran: time = 11.3 s      (22.6 %), step = 500 ms          (1 %)
    tran: time = 13.8 s      (27.6 %), step = 500 ms          (1 %)
    tran: time = 16.3 s      (32.6 %), step = 500 ms          (1 %)
    tran: time = 18.8 s      (37.6 %), step = 500 ms          (1 %)
    tran: time = 21.3 s      (42.6 %), step = 500 ms          (1 %)
    tran: time = 23.8 s      (47.6 %), step = 500 ms          (1 %)
    tran: time = 26.3 s      (52.6 %), step = 500 ms          (1 %)
    tran: time = 28.8 s      (57.6 %), step = 500 ms          (1 %)
    tran: time = 31.3 s      (62.6 %), step = 500 ms          (1 %)
    tran: time = 33.8 s      (67.6 %), step = 500 ms          (1 %)
    tran: time = 36.3 s      (72.6 %), step = 500 ms          (1 %)
    tran: time = 38.8 s      (77.6 %), step = 500 ms          (1 %)
    tran: time = 41.3 s      (82.6 %), step = 500 ms          (1 %)
    tran: time = 43.8 s      (87.6 %), step = 500 ms          (1 %)
    tran: time = 46.3 s      (92.6 %), step = 500 ms          (1 %)
    tran: time = 48.8 s      (97.6 %), step = 500 ms          (1 %)
Number of accepted tran steps =             748

Maximum value achieved for any signal of each quantity: 
V: V(S<0>) = 3.3 V
I: I(V8:p) = 6.343 uA

~~~~~~~~~~~~~~~~~~~~~~~~~~~~~~~~~
Post-Transient Simulation Summary
~~~~~~~~~~~~~~~~~~~~~~~~~~~~~~~~~
   -   To further speed up simulation, consider
          add ++aps on command line
   -   Non-default settings that could significantly slow down simulation
          errpreset = conservative, default moderate
          reltol = 10e-06, default 100e-06 (conservative)
~~~~~~~~~~~~~~~~~~~~~~~~~~~~~~~~~


During simulation, the CPU load for active processors is :
         0 (84.7 %)      1 (21.3 %)      2 (13.3 %)      3 (27.3 %)
         4 (25.5 %)      5 (60.2 %)      6 (14.7 %)      7 (8.2 %)
         8 (8.6 %)       9 (17.9 %)     10 (29.2 %)     11 (6.8 %)
        12 (17.9 %)     13 (28.8 %)     14 (30.1 %)     15 (25.0 %)
        16 (37.1 %)     17 (30.2 %)     18 (29.6 %)     19 (27.6 %)
        20 (19.3 %)     21 (19.0 %)     22 (29.0 %)     23 (27.3 %)
        24 (26.2 %)     25 (30.1 %)     26 (10.7 %)     27 (17.8 %)
        28 (34.2 %)     29 (85.2 %)     30 (21.1 %)     31 (13.3 %)
        32 (18.5 %)     33 (24.6 %)     34 (16.0 %)     35 (20.3 %)
        36 (49.3 %)     37 (43.1 %)     38 (21.3 %)     39 (39.1 %)
        40 (13.3 %)     41 (41.9 %)     42 (41.1 %)     43 (10.8 %)
        44 (19.3 %)     45 (17.4 %)     46 (8.3 %)      47 (29.0 %)
        Total: 1290.5%
Initial condition solution time: CPU = 2.268 ms, elapsed = 2.26998 ms.
Intrinsic tran analysis time:    CPU = 401.916 ms, elapsed = 403.239 ms.
Total time required for tran analysis `tran': CPU = 406.592 ms, elapsed = 408.489 ms, util. = 99.5%.
Time accumulated: CPU = 43.6884 s, elapsed = 45.68 s.
Peak resident memory used = 215 Mbytes.


Notice from spectre during transient analysis `tran', during Monte Carlo analysis `mc1'.
    34 warnings suppressed.

finalTimeOP: writing operating point information to rawfile.

Opening the PSF file ../psf/mc1_separate/098/finalTimeOP.info ...
modelParameter: writing model parameter values to rawfile.

Opening the PSF file ../psf/mc1_separate/098/modelParameter.info ...
element: writing instance parameter values to rawfile.

Opening the PSF file ../psf/mc1_separate/098/element.info ...
outputParameter: writing output parameter values to rawfile.

Opening the PSF file ../psf/mc1_separate/098/outputParameter.info ...
designParamVals: writing netlist parameters to rawfile.

Opening the PSFASCII file ../psf/mc1_separate/098/designParamVals.info ...
primitives: writing primitives to rawfile.

Opening the PSFASCII file ../psf/mc1_separate/098/primitives.info.primitives ...
subckts: writing subcircuits to rawfile.

Opening the PSFASCII file ../psf/mc1_separate/098/subckts.info.subckts ...
    mc1: iteration = 98            (98 %), step = 1            (1.01 %)
99  98.99% 

*****************************************************************************************
* 
* INFO: AMS_processOption = C35B4C3
* 
* INFO: Valid Modules  PIP VG5 HIRES
* 
*****************************************************************************************


Notice from spectre during Monte Carlo analysis `mc1'.
    V8: `period' has the unusually large value of 100 s.


***********************************************
Transient Analysis `tran': time = (0 s -> 50 s)
***********************************************

Opening the PSF file ../psf/mc1_separate/099/tran.tran.tran ...

Warning from spectre during check, during IC analysis, during transient analysis `tran', during Monte Carlo analysis `mc1'.
    WARNING (CMI-2943): Parameter checks have been ignored because the valid value for parameter 'trise' could not be found in 'C1'.
    WARNING (CMI-2943): Parameter checks have been ignored because the valid value for parameter 'trise' could not be found in 'I0.R2.CM'.
    WARNING (CMI-2943): Parameter checks have been ignored because the valid value for parameter 'trise' could not be found in 'I0.R2.CS1'.
    WARNING (CMI-2943): Parameter checks have been ignored because the valid value for parameter 'trise' could not be found in 'I0.R2.CS0'.
    WARNING (CMI-2943): Parameter checks have been ignored because the valid value for parameter 'trise' could not be found in 'I0.C3.C1'.
        Further occurrences of this warning will be suppressed.

Convergence achieved in 12 iterations.
DC simulation time: CPU = 2.056 ms, elapsed = 2.06089 ms.
Important parameter values:
    start = 0 s
    outputstart = 0 s
    stop = 50 s
    step = 50 ms
    maxstep = 500 ms
    ic = all
    useprevic = no
    skipdc = no
    reltol = 10e-06
    abstol(V) = 1 uV
    abstol(I) = 1 pA
    temp = 85 C
    tnom = 27 C
    tempeffects = all
    errpreset = conservative
    method = gear2only
    lteratio = 10
    relref = alllocal
    cmin = 0 F
    gmin = 1 pS
    rabsshort = 1 mOhm


Notice from spectre during transient analysis `tran', during Monte Carlo analysis `mc1'.
    Multithreading is disabled due to the size of the design being too small.


Output and IC/nodeset summary:
                 save   8       (current)
                 save   87      (voltage)

    tran: time = 1.254 s     (2.51 %), step = 102 ms       (204 m%)
    tran: time = 4.005 s     (8.01 %), step = 347.6 ms     (695 m%)
    tran: time = 6.731 s     (13.5 %), step = 500 ms          (1 %)
    tran: time = 9.231 s     (18.5 %), step = 500 ms          (1 %)
    tran: time = 11.73 s     (23.5 %), step = 500 ms          (1 %)
    tran: time = 14.23 s     (28.5 %), step = 500 ms          (1 %)
    tran: time = 16.73 s     (33.5 %), step = 500 ms          (1 %)
    tran: time = 19.23 s     (38.5 %), step = 500 ms          (1 %)
    tran: time = 21.73 s     (43.5 %), step = 500 ms          (1 %)
    tran: time = 24.23 s     (48.5 %), step = 500 ms          (1 %)
    tran: time = 26.73 s     (53.5 %), step = 500 ms          (1 %)
    tran: time = 29.23 s     (58.5 %), step = 500 ms          (1 %)
    tran: time = 31.73 s     (63.5 %), step = 500 ms          (1 %)
    tran: time = 34.23 s     (68.5 %), step = 500 ms          (1 %)
    tran: time = 36.73 s     (73.5 %), step = 500 ms          (1 %)
    tran: time = 39.23 s     (78.5 %), step = 500 ms          (1 %)
    tran: time = 41.73 s     (83.5 %), step = 500 ms          (1 %)
    tran: time = 44.23 s     (88.5 %), step = 500 ms          (1 %)
    tran: time = 46.73 s     (93.5 %), step = 500 ms          (1 %)
    tran: time = 49.23 s     (98.5 %), step = 500 ms          (1 %)
Number of accepted tran steps =             740

Maximum value achieved for any signal of each quantity: 
V: V(S<0>) = 3.3 V
I: I(V8:p) = 6.305 uA

~~~~~~~~~~~~~~~~~~~~~~~~~~~~~~~~~
Post-Transient Simulation Summary
~~~~~~~~~~~~~~~~~~~~~~~~~~~~~~~~~
   -   To further speed up simulation, consider
          add ++aps on command line
   -   Non-default settings that could significantly slow down simulation
          errpreset = conservative, default moderate
          reltol = 10e-06, default 100e-06 (conservative)
~~~~~~~~~~~~~~~~~~~~~~~~~~~~~~~~~


During simulation, the CPU load for active processors is :
         0 (84.9 %)      1 (21.2 %)      2 (13.2 %)      3 (27.8 %)
         4 (25.3 %)      5 (59.8 %)      6 (14.8 %)      7 (8.1 %)
         8 (8.6 %)       9 (18.3 %)     10 (29.9 %)     11 (6.8 %)
        12 (17.8 %)     13 (28.5 %)     14 (29.8 %)     15 (24.8 %)
        16 (36.8 %)     17 (30.0 %)     18 (30.3 %)     19 (27.4 %)
        20 (19.2 %)     21 (19.0 %)     22 (28.7 %)     23 (27.9 %)
        24 (25.9 %)     25 (29.8 %)     26 (10.6 %)     27 (18.6 %)
        28 (34.9 %)     29 (84.4 %)     30 (20.9 %)     31 (13.2 %)
        32 (18.3 %)     33 (25.3 %)     34 (15.9 %)     35 (20.2 %)
        36 (48.8 %)     37 (42.6 %)     38 (21.2 %)     39 (38.8 %)
        40 (13.2 %)     41 (42.5 %)     42 (40.9 %)     43 (10.7 %)
        44 (20.1 %)     45 (17.3 %)     46 (8.2 %)      47 (29.7 %)
        Total: 1290.8%
Initial condition solution time: CPU = 2.094 ms, elapsed = 2.09999 ms.
Intrinsic tran analysis time:    CPU = 395.725 ms, elapsed = 397.154 ms.
Total time required for tran analysis `tran': CPU = 400.035 ms, elapsed = 402.084 ms, util. = 99.5%.
Time accumulated: CPU = 44.1251 s, elapsed = 46.1301 s.
Peak resident memory used = 215 Mbytes.


Notice from spectre during transient analysis `tran', during Monte Carlo analysis `mc1'.
    34 warnings suppressed.

finalTimeOP: writing operating point information to rawfile.

Opening the PSF file ../psf/mc1_separate/099/finalTimeOP.info ...
modelParameter: writing model parameter values to rawfile.

Opening the PSF file ../psf/mc1_separate/099/modelParameter.info ...
element: writing instance parameter values to rawfile.

Opening the PSF file ../psf/mc1_separate/099/element.info ...
outputParameter: writing output parameter values to rawfile.

Opening the PSF file ../psf/mc1_separate/099/outputParameter.info ...
designParamVals: writing netlist parameters to rawfile.

Opening the PSFASCII file ../psf/mc1_separate/099/designParamVals.info ...
primitives: writing primitives to rawfile.

Opening the PSFASCII file ../psf/mc1_separate/099/primitives.info.primitives ...
subckts: writing subcircuits to rawfile.

Opening the PSFASCII file ../psf/mc1_separate/099/subckts.info.subckts ...
    mc1: iteration = 99            (99 %), step = 1            (1.01 %)
100 100.00% 

*****************************************************************************************
* 
* INFO: AMS_processOption = C35B4C3
* 
* INFO: Valid Modules  PIP VG5 HIRES
* 
*****************************************************************************************


Notice from spectre during Monte Carlo analysis `mc1'.
    V8: `period' has the unusually large value of 100 s.


***********************************************
Transient Analysis `tran': time = (0 s -> 50 s)
***********************************************

Opening the PSF file ../psf/mc1_separate/100/tran.tran.tran ...

Warning from spectre during check, during IC analysis, during transient analysis `tran', during Monte Carlo analysis `mc1'.
    WARNING (CMI-2943): Parameter checks have been ignored because the valid value for parameter 'trise' could not be found in 'C1'.
    WARNING (CMI-2943): Parameter checks have been ignored because the valid value for parameter 'trise' could not be found in 'I0.R2.CM'.
    WARNING (CMI-2943): Parameter checks have been ignored because the valid value for parameter 'trise' could not be found in 'I0.R2.CS1'.
    WARNING (CMI-2943): Parameter checks have been ignored because the valid value for parameter 'trise' could not be found in 'I0.R2.CS0'.
    WARNING (CMI-2943): Parameter checks have been ignored because the valid value for parameter 'trise' could not be found in 'I0.C3.C1'.
        Further occurrences of this warning will be suppressed.

Convergence achieved in 12 iterations.
DC simulation time: CPU = 2.534 ms, elapsed = 2.53391 ms.
Important parameter values:
    start = 0 s
    outputstart = 0 s
    stop = 50 s
    step = 50 ms
    maxstep = 500 ms
    ic = all
    useprevic = no
    skipdc = no
    reltol = 10e-06
    abstol(V) = 1 uV
    abstol(I) = 1 pA
    temp = 85 C
    tnom = 27 C
    tempeffects = all
    errpreset = conservative
    method = gear2only
    lteratio = 10
    relref = alllocal
    cmin = 0 F
    gmin = 1 pS
    rabsshort = 1 mOhm


Notice from spectre during transient analysis `tran', during Monte Carlo analysis `mc1'.
    Multithreading is disabled due to the size of the design being too small.


Output and IC/nodeset summary:
                 save   8       (current)
                 save   87      (voltage)

    tran: time = 1.278 s     (2.56 %), step = 103.9 ms     (208 m%)
    tran: time = 4.078 s     (8.16 %), step = 353.5 ms     (707 m%)
    tran: time = 6.331 s     (12.7 %), step = 500 ms          (1 %)
    tran: time = 8.831 s     (17.7 %), step = 500 ms          (1 %)
    tran: time = 11.33 s     (22.7 %), step = 500 ms          (1 %)
    tran: time = 13.83 s     (27.7 %), step = 500 ms          (1 %)
    tran: time = 16.33 s     (32.7 %), step = 500 ms          (1 %)
    tran: time = 18.83 s     (37.7 %), step = 500 ms          (1 %)
    tran: time = 21.33 s     (42.7 %), step = 500 ms          (1 %)
    tran: time = 23.83 s     (47.7 %), step = 500 ms          (1 %)
    tran: time = 26.33 s     (52.7 %), step = 500 ms          (1 %)
    tran: time = 28.83 s     (57.7 %), step = 500 ms          (1 %)
    tran: time = 31.33 s     (62.7 %), step = 500 ms          (1 %)
    tran: time = 33.83 s     (67.7 %), step = 500 ms          (1 %)
    tran: time = 36.33 s     (72.7 %), step = 500 ms          (1 %)
    tran: time = 38.83 s     (77.7 %), step = 500 ms          (1 %)
    tran: time = 41.33 s     (82.7 %), step = 500 ms          (1 %)
    tran: time = 43.83 s     (87.7 %), step = 500 ms          (1 %)
    tran: time = 46.33 s     (92.7 %), step = 500 ms          (1 %)
    tran: time = 48.83 s     (97.7 %), step = 500 ms          (1 %)
Number of accepted tran steps =             741

Maximum value achieved for any signal of each quantity: 
V: V(S<0>) = 3.3 V
I: I(V8:p) = 6.586 uA

~~~~~~~~~~~~~~~~~~~~~~~~~~~~~~~~~
Post-Transient Simulation Summary
~~~~~~~~~~~~~~~~~~~~~~~~~~~~~~~~~
   -   To further speed up simulation, consider
          add ++aps on command line
   -   Non-default settings that could significantly slow down simulation
          errpreset = conservative, default moderate
          reltol = 10e-06, default 100e-06 (conservative)
~~~~~~~~~~~~~~~~~~~~~~~~~~~~~~~~~


During simulation, the CPU load for active processors is :
         0 (85.0 %)      1 (21.0 %)      2 (13.1 %)      3 (28.5 %)
         4 (25.1 %)      5 (59.3 %)      6 (14.7 %)      7 (8.0 %)
         8 (8.5 %)       9 (18.2 %)     10 (30.6 %)     11 (6.7 %)
        12 (17.7 %)     13 (28.3 %)     14 (29.6 %)     15 (24.6 %)
        16 (36.5 %)     17 (29.8 %)     18 (30.8 %)     19 (27.2 %)
        20 (19.0 %)     21 (19.0 %)     22 (28.5 %)     23 (28.6 %)
        24 (25.7 %)     25 (29.5 %)     26 (11.2 %)     27 (19.4 %)
        28 (35.5 %)     29 (83.7 %)     30 (20.8 %)     31 (13.1 %)
        32 (18.2 %)     33 (25.4 %)     34 (15.8 %)     35 (20.1 %)
        36 (48.4 %)     37 (42.2 %)     38 (21.0 %)     39 (38.5 %)
        40 (13.1 %)     41 (43.0 %)     42 (40.5 %)     43 (10.6 %)
        44 (20.9 %)     45 (17.2 %)     46 (8.2 %)      47 (30.3 %)
        Total: 1290.6%
Initial condition solution time: CPU = 2.574 ms, elapsed = 2.57611 ms.
Intrinsic tran analysis time:    CPU = 400.126 ms, elapsed = 401.769 ms.
Total time required for tran analysis `tran': CPU = 405.376 ms, elapsed = 407.68 ms, util. = 99.4%.
Time accumulated: CPU = 44.5678 s, elapsed = 46.5873 s.
Peak resident memory used = 215 Mbytes.


Notice from spectre during transient analysis `tran', during Monte Carlo analysis `mc1'.
    34 warnings suppressed.

finalTimeOP: writing operating point information to rawfile.

Opening the PSF file ../psf/mc1_separate/100/finalTimeOP.info ...
modelParameter: writing model parameter values to rawfile.

Opening the PSF file ../psf/mc1_separate/100/modelParameter.info ...
element: writing instance parameter values to rawfile.

Opening the PSF file ../psf/mc1_separate/100/element.info ...
outputParameter: writing output parameter values to rawfile.

Opening the PSF file ../psf/mc1_separate/100/outputParameter.info ...
designParamVals: writing netlist parameters to rawfile.

Opening the PSFASCII file ../psf/mc1_separate/100/designParamVals.info ...
primitives: writing primitives to rawfile.

Opening the PSFASCII file ../psf/mc1_separate/100/primitives.info.primitives ...
subckts: writing subcircuits to rawfile.

Opening the PSFASCII file ../psf/mc1_separate/100/subckts.info.subckts ...
    mc1: iteration = 100          (100 %), step = 1            (1.01 %)
Total time required for montecarlo analysis `mc1': CPU = 44.1175 s, elapsed = 45.4704 s, util. = 97%.
Time accumulated: CPU = 44.5926 s, elapsed = 46.6242 s.
Peak resident memory used = 215 Mbytes.

Licensing Information:
Lic Summary:
[16:52:57.340048] Cdslmd servers:3000@lic08.ug.kth.se:29000@lic06.ug.kth.se
[16:52:57.864371] Feature usage summary:
[16:52:57.864376] Virtuoso_Multi_mode_Simulation


Aggregate audit (4:52:57 PM, Wed Apr 15, 2026):
Time used: CPU = 44.6 s, elapsed = 46.6 s, util. = 95.6%.
Time spent in licensing: elapsed = 53.3 ms.
Peak memory used = 215 Mbytes.
Simulation started at: 4:52:11 PM, Wed Apr 15, 2026, ended at: 4:52:57 PM, Wed Apr 15, 2026, with elapsed time (wall clock): 46.6 s.
spectre completes with 0 errors, 522 warnings, and 310 notices.
