
Spectre (R) Circuit Simulator
Version 24.1.0.288.isr5 64bit -- 3 Apr 2025
Copyright (C) 1989-2025 Cadence Design Systems, Inc. All rights reserved worldwide. Cadence and Spectre are registered trademarks of Cadence Design Systems, Inc. All others are the property of their respective holders.

Includes RSA BSAFE(R) Cryptographic or Security Protocol Software from RSA Security, Inc.

User: davidevi   Host: il2244vt26_davidevi   HostID: 11AC2C00   PID: 1019517
Memory  available: 3.0332 TB  physical: 3.2467 TB
Linux   : Rocky Linux release 8.10 (Green Obsidian)
CPU Type: Intel(R) Xeon(R) CPU E7-8857 v2 @ 3.00GHz
        Socket: Processors [Frequency]
        0:       0 [2500.0],  1 [1200.0],  2 [2500.0],  3 [3400.0],  4 [2999.9]
                 5 [3600.0],  6 [3600.0],  7 [2600.0],  8 [2999.9],  9 [3500.0]
                10 [2600.0], 11 [1200.0]
        1:      12 [3600.0], 13 [3600.0], 14 [3600.0], 15 [3600.0], 16 [3600.0]
                17 [1200.0], 18 [3600.0], 19 [3600.0], 20 [2999.9], 21 [1500.0]
                22 [3600.0], 23 [3600.0]
        2:      24 [2999.9], 25 [1200.0], 26 [3600.0], 27 [1200.0], 28 [1200.0]
                29 [3600.0], 30 [1200.0], 31 [2999.9], 32 [1200.0], 33 [2999.9]
                34 [2700.0], 35 [2800.0]
        3:      36 [1200.0], 37 [3600.0], 38 [1200.0], 39 [2979.4], 40 [3600.0]
                41 [3600.0], 42 [3600.0], 43 [3600.0], 44 [1200.0], 45 [1500.0]
                46 [2629.4], 47 [2944.5]
        
System load averages (1min, 5min, 15min) : 19.2 %, 21.0 %, 23.8 %
HPC is enabled


Simulating `input.scs' on il2244vt26_davidevi at 4:46:04 PM, Wed Apr 15, 2026 (process id: 1019517).
Current working directory: /home/davidevi/Desktop/myproject/Sim/VGA/VGA_1_wakeup_tb/adexl/results/data/MonteCarlo.0/4/wakeup/groupRunDataDir/netlist
Command line:
    /opt/tools/cadence/installs/SPECTRE241/tools/bin/spectre -64  \
        input.scs +escchars +log ../psf/spectre.out -format psfbin  \
        +rtsf -raw ../psf +aps +mt +lqtimeout 900 -maxw 5 -maxn 5  \
        +param /opt/pdk/ams/410/spectre/ams_range.lmts -env ade  \
        -ahdllibdir  \
        /home/davidevi/Desktop/myproject/Sim/VGA/VGA_1_wakeup_tb/adexl/results/data/MonteCarlo.0/sharedData/Job457/ahdl/input.ahdlSimDB  \
        +logstatus  \
        +adespetkn=0001089D13A302B663E41FB550AF0DF415A679A322D5069144BF588C12F604E07EF416DC01A319B562BB63D344EF02A645A302B13F9B12E677AD6AD175DB4F927FC079D15D9175FF34986BDD0AF002BA50FD7FD707E002A700AC1C841AFC44E10EA979D12FF874D3349879D118F874D33498100ED833B4185D470000367F

Simulation Id: vuAV8UC5f5VbXXKX
Licensing Information:
[16:46:05.121778] Configured Lic search path (24.01-s002): 3000@lic08.ug.kth.se:29000@lic06.ug.kth.se

Licensing Information:
[16:46:05.152305] Periodic Lic check successful

Loading /opt/tools/cadence/installs/SPECTRE241/tools.lnx86/cmi/lib/64bit/5.0/libinfineon_sh.so ...
Loading /opt/tools/cadence/installs/SPECTRE241/tools.lnx86/cmi/lib/64bit/5.0/libphilips_I_sh.so ...
Loading /opt/tools/cadence/installs/SPECTRE241/tools.lnx86/cmi/lib/64bit/5.0/libphilips_sh.so ...
Loading /opt/tools/cadence/installs/SPECTRE241/tools.lnx86/cmi/lib/64bit/5.0/libsparam_sh.so ...
Loading /opt/tools/cadence/installs/SPECTRE241/tools.lnx86/cmi/lib/64bit/5.0/libstmodels_sh.so ...

Warning from spectre.
    WARNING (SPECTRE-691): This CPU processor does not support x86 advanced vector extensions instructions. This may affect math operations and slow down the simulation.

Reading file:  /home/davidevi/Desktop/myproject/Sim/VGA/VGA_1_wakeup_tb/adexl/results/data/MonteCarlo.0/4/wakeup/groupRunDataDir/netlist/input.scs
Reading file:  /opt/pdk/ams/410/spectre/ams_range.lmts

Warning from spectre during read of parameter soft limits file `/opt/pdk/ams/410/spectre/ams_range.lmts', during circuit read-in.
    WARNING (SPECTRE-8360): line 1511: `ac' is an undefined primitive device.
    WARNING (SPECTRE-8360): line 1512: `ac' is an undefined primitive device.
    WARNING (SPECTRE-8360): line 1513: `ac' is an undefined primitive device.
    WARNING (SPECTRE-8360): line 1514: `ac' is an undefined primitive device.
    WARNING (SPECTRE-8360): line 1515: `ac' is an undefined primitive device.
        Further occurrences of this warning will be suppressed.

Reading file:  /opt/tools/cadence/installs/SPECTRE241/tools.lnx86/spectre/etc/configs/spectre.cfg
Reading file:  /opt/pdk/ams/410/spectre/c35/soac/soac.scs
Reading file:  /opt/pdk/ams/410/spectre/c35/soac/processOption.scs
Reading file:  /opt/pdk/ams/410/spectre/c35/soac/process.scs
Reading file:  /opt/pdk/ams/410/spectre/c35/soac/soac.va

Warning from spectre during AHDL read-in.
    WARNING (VACOMP-2435): The environment variable CDS_AHDLCMI_ENABLE is no longer supported. Therefore, the simulator will use the default compiled C code flow.

Reading link:  /opt/tools/cadence/installs/SPECTRE241/tools.lnx86/spectre/etc/ahdl/constants.h
Reading file:  /opt/tools/cadence/installs/SPECTRE241/tools.lnx86/spectre/etc/ahdl/constants.vams
Reading link:  /opt/tools/cadence/installs/SPECTRE241/tools.lnx86/spectre/etc/ahdl/discipline.h
Reading file:  /opt/tools/cadence/installs/SPECTRE241/tools.lnx86/spectre/etc/ahdl/disciplines.vams
Reading file:  /opt/pdk/ams/410/spectre/c35/processOption/C35B4C3.scs
Reading file:  /opt/pdk/ams/410/spectre/c35/soac/cmos53.scs
Reading file:  /opt/pdk/ams/410/spectre/c35/soac/res.scs
Reading file:  /opt/pdk/ams/410/spectre/c35/soac/cap.scs
Reading file:  /opt/pdk/ams/410/spectre/c35/soac/bip.scs
Reading file:  /opt/pdk/ams/410/spectre/c35/soac/ind.scs
Reading file:  /opt/pdk/ams/410/spectre/c35/soac/esddiode.scs
Time for NDB Parsing: CPU = 175.263 ms, elapsed = 411.273 ms.
Time accumulated: CPU = 374.438 ms, elapsed = 411.276 ms.
Peak resident memory used = 175 Mbytes.

Existing shared object for module modn_ahdl is up to date.
Installed compiled interface for modn_ahdl.
Existing shared object for module modp_ahdl is up to date.
Installed compiled interface for modp_ahdl.
Existing shared object for module cpoly_ahdl is up to date.
Installed compiled interface for cpoly_ahdl.
Existing shared object for module rpolyh_ahdl is up to date.
Installed compiled interface for rpolyh_ahdl.
Existing shared object for module bsource_19b458 is up to date.
Installed compiled interface for bsource_19b458.
Time for Elaboration: CPU = 60.862 ms, elapsed = 64.5092 ms.
Time accumulated: CPU = 435.473 ms, elapsed = 475.957 ms.
Peak resident memory used = 188 Mbytes.


Notice from spectre during hierarchy flattening.
    The value 'psf' specified for the 'checklimitdest' option will no longer be supported in future releases. Use 'spectre -h' to see other recommended values for the 'checklimitdest' option.


*****************************************************************************************
* 
* INFO: AMS_processOption = C35B4C3
* 
* INFO: Valid Modules  PIP VG5 HIRES
* 
*****************************************************************************************


Notice from spectre during hierarchy flattening.
    V8: `period' has the unusually large value of 100 s.


Time for EDB Visiting: CPU = 9.461 ms, elapsed = 9.46093 ms.
Time accumulated: CPU = 445.119 ms, elapsed = 485.602 ms.
Peak resident memory used = 191 Mbytes.

Loading /opt/tools/cadence/installs/SPECTRE241/tools.lnx86/mdl/lib/64bit/libSpectreEH_sh.so ...

Warning from spectre during initial setup.
    WARNING (SPECTRE-16460): SOAC_cvarm_vspsub:Specified subcircuit master `cvarm' was not found.
    WARNING (SPECTRE-16462): SOAC_cvarm_vspsub:Error in specification of subcircuit master. Assert is ignored.
    WARNING (SPECTRE-16460): SOAC_cvarm_vbs:Specified subcircuit master `cvarm' was not found.
    WARNING (SPECTRE-16462): SOAC_cvarm_vbs:Error in specification of subcircuit master. Assert is ignored.
    WARNING (SPECTRE-16460): SOAC_cvarm_vgb:Specified subcircuit master `cvarm' was not found.
    WARNING (SPECTRE-16462): SOAC_cvarm_vgb:Error in specification of subcircuit master. Assert is ignored.
    WARNING (SPECTRE-16460): SOAC_cvart_vspsub:Specified subcircuit master `cvart' was not found.
    WARNING (SPECTRE-16462): SOAC_cvart_vspsub:Error in specification of subcircuit master. Assert is ignored.
    WARNING (SPECTRE-16460): SOAC_cvart_vbs:Specified subcircuit master `cvart' was not found.
        Further occurrences of this warning will be suppressed.
    WARNING (SPECTRE-16462): SOAC_cvart_vbs:Error in specification of subcircuit master. Assert is ignored.
        Further occurrences of this warning will be suppressed.
Notice from spectre during topology check.
    Only one connection to the following 54 nodes:
        I0.MN6.psub!
        I0.MN5.psub!
        I0.MN4.psub!
        I0.MN3.psub!
        I0.MN2.psub!
        Further occurrences of this notice will be suppressed.
Notice from spectre during initial setup.
    Multithreading is disabled due to the size of the design being too small.


Netlist title:
        // Point Netlist Generated on: Apr 15 16:46:04 2026


Global user options:
         psfversion = 1.4.0
            vabstol = 1e-06
            iabstol = 1e-12
               temp = -40
           homotopy = 5
              limit = delta
         compatible = spice2
               gmin = 1e-12
             rforce = 1
           maxnotes = 5
           maxwarns = 5
             digits = 5
               cols = 80
             pivrel = 0.001
           sensfile = ../psf/sens.output
     checklimitdest = psf
     enable_pre_ver = yes
      ignorezerovar = yes
               save = allpub
             reltol = 0.0001
               tnom = 27
             scalem = 1
              scale = 1

Scoped user options:

Circuit inventory:
              nodes 88
            bsim3v3 35    
     bsource_19b458 2     
          capacitor 38    
         cpoly_ahdl 17    
            isource 1     
          modn_ahdl 19    
          modp_ahdl 16    
           resistor 1     
        rpolyh_ahdl 2     
            vsource 8     

Analysis and control statement inventory:
               info 7     
         montecarlo 1     
               tran 1     

Output statements:
             .probe 0     
           .measure 0     
               save 0     

Design checks inventory:
          paramtest 55    
             assert 175   


Notice from spectre during initial setup.
    APS enabled.
    1 notice suppressed.
    72 warnings suppressed.

Time for parsing: CPU = 19.309 ms, elapsed = 686.595 ms.
Time accumulated: CPU = 464.539 ms, elapsed = 1.17231 s.
Peak resident memory used = 198 Mbytes.

~~~~~~~~~~~~~~~~~~~~~~
Pre-Simulation Summary
~~~~~~~~~~~~~~~~~~~~~~
   -   (APS) Multi-threading. The recommended number of threads is 1, consider adding +mt=1 on command line.
~~~~~~~~~~~~~~~~~~~~~~

**************************************************
Monte Carlo Analysis `mc1': iteration = (1 -> 100)
**************************************************
Important parameter values:
    seed = 12345
    sampling = lds
    variations = all
    firstrun = 1
    numruns = 100
    nullmfactorcorrelation = no
    donominal = yes
    method = standard

**** Performing nominal run for `mc1'

Notice from spectre during transient analysis `tran', during Monte Carlo analysis `mc1'.
    No checklimit analysis defined for asserts. A default checklimit analysis 'SpectreChecklimitAnal' has been created with all asserts enabled.


***********************************************
Transient Analysis `tran': time = (0 s -> 50 s)
***********************************************

Warning from spectre during check, during IC analysis, during transient analysis `tran', during Monte Carlo analysis `mc1'.
    WARNING (CMI-2943): Parameter checks have been ignored because the valid value for parameter 'trise' could not be found in 'C1'.
    WARNING (CMI-2943): Parameter checks have been ignored because the valid value for parameter 'trise' could not be found in 'I0.R2.CM'.
    WARNING (CMI-2943): Parameter checks have been ignored because the valid value for parameter 'trise' could not be found in 'I0.R2.CS1'.
    WARNING (CMI-2943): Parameter checks have been ignored because the valid value for parameter 'trise' could not be found in 'I0.R2.CS0'.
    WARNING (CMI-2943): Parameter checks have been ignored because the valid value for parameter 'trise' could not be found in 'I0.C3.C1'.
        Further occurrences of this warning will be suppressed.

Convergence achieved in 12 iterations.
DC simulation time: CPU = 3.01 ms, elapsed = 3.01099 ms.

Opening the PSF file ../psf/nom/tran.tran.tran ...
Important parameter values:
    start = 0 s
    outputstart = 0 s
    stop = 50 s
    step = 50 ms
    maxstep = 500 ms
    ic = all
    useprevic = no
    skipdc = no
    reltol = 10e-06
    abstol(V) = 1 uV
    abstol(I) = 1 pA
    temp = -40 C
    tnom = 27 C
    tempeffects = all
    errpreset = conservative
    method = gear2only
    lteratio = 10
    relref = alllocal
    cmin = 0 F
    gmin = 1 pS
    rabsshort = 1 mOhm


Notice from spectre during transient analysis `tran', during Monte Carlo analysis `mc1'.
    Multithreading is disabled due to the size of the design being too small.


Output and IC/nodeset summary:
                 save   8       (current)
                 save   87      (voltage)

    tran: time = 1.301 s      (2.6 %), step = 107.3 ms     (215 m%)
    tran: time = 3.827 s     (7.65 %), step = 377.2 ms     (754 m%)
    tran: time = 6.665 s     (13.3 %), step = 500 ms          (1 %)
    tran: time = 9.165 s     (18.3 %), step = 500 ms          (1 %)
    tran: time = 11.66 s     (23.3 %), step = 500 ms          (1 %)
    tran: time = 14.16 s     (28.3 %), step = 500 ms          (1 %)
    tran: time = 16.66 s     (33.3 %), step = 500 ms          (1 %)
    tran: time = 19.16 s     (38.3 %), step = 500 ms          (1 %)
    tran: time = 21.66 s     (43.3 %), step = 500 ms          (1 %)
    tran: time = 24.16 s     (48.3 %), step = 500 ms          (1 %)
    tran: time = 26.66 s     (53.3 %), step = 500 ms          (1 %)
    tran: time = 29.16 s     (58.3 %), step = 500 ms          (1 %)
    tran: time = 31.66 s     (63.3 %), step = 500 ms          (1 %)
    tran: time = 34.16 s     (68.3 %), step = 500 ms          (1 %)
    tran: time = 36.66 s     (73.3 %), step = 500 ms          (1 %)
    tran: time = 39.16 s     (78.3 %), step = 500 ms          (1 %)
    tran: time = 41.66 s     (83.3 %), step = 500 ms          (1 %)
    tran: time = 44.16 s     (88.3 %), step = 500 ms          (1 %)
    tran: time = 46.66 s     (93.3 %), step = 500 ms          (1 %)
    tran: time = 49.16 s     (98.3 %), step = 500 ms          (1 %)
Number of accepted tran steps =             729

Maximum value achieved for any signal of each quantity: 
V: V(vout) = 3.3 V
I: I(V8:p) = 6.465 uA

~~~~~~~~~~~~~~~~~~~~~~~~~~~~~~~~~
Post-Transient Simulation Summary
~~~~~~~~~~~~~~~~~~~~~~~~~~~~~~~~~
   -   To further speed up simulation, consider
          add ++aps on command line
   -   Non-default settings that could significantly slow down simulation
          errpreset = conservative, default moderate
          reltol = 10e-06, default 100e-06 (conservative)
~~~~~~~~~~~~~~~~~~~~~~~~~~~~~~~~~


During simulation, the CPU load for active processors is :
         0 (6.5 %)       1 (20.0 %)      2 (31.6 %)      3 (3.3 %)
         4 (100.0 %)     5 (3.9 %)       6 (33.1 %)      7 (4.6 %)
         8 (7.8 %)       9 (5.8 %)      10 (13.5 %)     11 (16.9 %)
        12 (5.2 %)      13 (34.6 %)     14 (3.2 %)      15 (17.6 %)
        16 (37.0 %)     17 (3.9 %)      18 (8.3 %)      19 (10.5 %)
        20 (100.0 %)    21 (3.3 %)      22 (1.9 %)      23 (6.5 %)
        24 (100.0 %)    25 (5.1 %)      26 (3.9 %)      27 (3.9 %)
        28 (6.5 %)      29 (6.5 %)      30 (33.5 %)     31 (98.1 %)
        32 (4.6 %)      33 (44.2 %)     34 (5.3 %)      35 (7.0 %)
        36 (49.4 %)     37 (8.4 %)      38 (3.2 %)      39 (11.6 %)
        40 (7.1 %)      41 (3.9 %)      42 (2.0 %)      43 (31.8 %)
        44 (2.6 %)      45 (23.1 %)     46 (5.2 %)      47 (4.5 %)
        Total: 950.5%
Initial condition solution time: CPU = 3.056 ms, elapsed = 3.05915 ms.
Intrinsic tran analysis time:    CPU = 445.459 ms, elapsed = 447.249 ms.
Total time required for tran analysis `tran': CPU = 532.444 ms, elapsed = 537.055 ms, util. = 99.1%.
Time accumulated: CPU = 1.02528 s, elapsed = 1.73887 s.
Peak resident memory used = 209 Mbytes.


Notice from spectre during transient analysis `tran', during Monte Carlo analysis `mc1'.
    34 warnings suppressed.

finalTimeOP: writing operating point information to rawfile.

Opening the PSF file ../psf/nom/finalTimeOP.info ...
modelParameter: writing model parameter values to rawfile.

Opening the PSF file ../psf/nom/modelParameter.info ...
element: writing instance parameter values to rawfile.

Opening the PSF file ../psf/nom/element.info ...
outputParameter: writing output parameter values to rawfile.

Opening the PSF file ../psf/nom/outputParameter.info ...
designParamVals: writing netlist parameters to rawfile.

Opening the PSFASCII file ../psf/nom/designParamVals.info ...
primitives: writing primitives to rawfile.

Opening the PSFASCII file ../psf/nom/primitives.info.primitives ...
subckts: writing subcircuits to rawfile.

Opening the PSFASCII file ../psf/nom/subckts.info.subckts ...
Opening iteration number and data-directory mapping file:  /home/davidevi/Desktop/myproject/Sim/VGA/VGA_1_wakeup_tb/adexl/results/data/MonteCarlo.0/4/wakeup/groupRunDataDir/netlist/../psf/mc1.mapping

Statistical parameters:
    Defined process parameters: 629
    Defined mismatch parameters (subckt based): 86
    Non-referenced mismatch parameters: 80
    Number of random variables: 718
    Gaussian truncation for process parameters: 4.00 sigma
    Gaussian truncation for mismatch parameters: 4.00 sigma


Opening the PSF file ../psf/mc1_tran.montecarlo ...

Opening the PSF file ../psf/mc1_finalTimeOP.montecarlo ...

Opening the PSF file ../psf/mc1_modelParameter.montecarlo ...

Opening the PSF file ../psf/mc1_element.montecarlo ...

Opening the PSF file ../psf/mc1_outputParameter.montecarlo ...

Opening the PSF file ../psf/mc1_designParamVals.montecarlo ...

Opening the PSF file ../psf/mc1_primitives.montecarlo ...

Opening the PSF file ../psf/mc1_subckts.montecarlo ...

**** Performing monte carlo loop for `mc1'

1   0.00% 

*****************************************************************************************
* 
* INFO: AMS_processOption = C35B4C3
* 
* INFO: Valid Modules  PIP VG5 HIRES
* 
*****************************************************************************************


Notice from spectre at iteration = 1 during Monte Carlo analysis `mc1'.
    V8: `period' has the unusually large value of 100 s.


***********************************************
Transient Analysis `tran': time = (0 s -> 50 s)
***********************************************

Opening the PSF file ../psf/mc1_separate/001/tran.tran.tran ...

Warning from spectre at iteration = 1 during check, during IC analysis, during transient analysis `tran', during Monte Carlo analysis `mc1'.
    WARNING (CMI-2943): Parameter checks have been ignored because the valid value for parameter 'trise' could not be found in 'C1'.
    WARNING (CMI-2943): Parameter checks have been ignored because the valid value for parameter 'trise' could not be found in 'I0.R2.CM'.
    WARNING (CMI-2943): Parameter checks have been ignored because the valid value for parameter 'trise' could not be found in 'I0.R2.CS1'.
    WARNING (CMI-2943): Parameter checks have been ignored because the valid value for parameter 'trise' could not be found in 'I0.R2.CS0'.
    WARNING (CMI-2943): Parameter checks have been ignored because the valid value for parameter 'trise' could not be found in 'I0.C3.C1'.
        Further occurrences of this warning will be suppressed.

Convergence achieved in 12 iterations.
DC simulation time: CPU = 2.829 ms, elapsed = 2.83003 ms.
Important parameter values:
    start = 0 s
    outputstart = 0 s
    stop = 50 s
    step = 50 ms
    maxstep = 500 ms
    ic = all
    useprevic = no
    skipdc = no
    reltol = 10e-06
    abstol(V) = 1 uV
    abstol(I) = 1 pA
    temp = -40 C
    tnom = 27 C
    tempeffects = all
    errpreset = conservative
    method = gear2only
    lteratio = 10
    relref = alllocal
    cmin = 0 F
    gmin = 1 pS
    rabsshort = 1 mOhm


Notice from spectre at iteration = 1 during transient analysis `tran', during Monte Carlo analysis `mc1'.
    Multithreading is disabled due to the size of the design being too small.


Output and IC/nodeset summary:
                 save   8       (current)
                 save   87      (voltage)

    tran: time = 1.293 s     (2.59 %), step = 93.39 ms     (187 m%)
    tran: time = 3.869 s     (7.74 %), step = 362.9 ms     (726 m%)
    tran: time = 6.663 s     (13.3 %), step = 500 ms          (1 %)
    tran: time = 9.163 s     (18.3 %), step = 500 ms          (1 %)
    tran: time = 11.66 s     (23.3 %), step = 500 ms          (1 %)
    tran: time = 14.16 s     (28.3 %), step = 500 ms          (1 %)
    tran: time = 16.66 s     (33.3 %), step = 500 ms          (1 %)
    tran: time = 19.16 s     (38.3 %), step = 500 ms          (1 %)
    tran: time = 21.66 s     (43.3 %), step = 500 ms          (1 %)
    tran: time = 24.16 s     (48.3 %), step = 500 ms          (1 %)
    tran: time = 26.66 s     (53.3 %), step = 500 ms          (1 %)
    tran: time = 29.16 s     (58.3 %), step = 500 ms          (1 %)
    tran: time = 31.66 s     (63.3 %), step = 500 ms          (1 %)
    tran: time = 34.16 s     (68.3 %), step = 500 ms          (1 %)
    tran: time = 36.66 s     (73.3 %), step = 500 ms          (1 %)
    tran: time = 39.16 s     (78.3 %), step = 500 ms          (1 %)
    tran: time = 41.66 s     (83.3 %), step = 500 ms          (1 %)
    tran: time = 44.16 s     (88.3 %), step = 500 ms          (1 %)
    tran: time = 46.66 s     (93.3 %), step = 500 ms          (1 %)
    tran: time = 49.16 s     (98.3 %), step = 500 ms          (1 %)
Number of accepted tran steps =             742

Maximum value achieved for any signal of each quantity: 
V: V(S<0>) = 3.3 V
I: I(V8:p) = 6.36 uA

~~~~~~~~~~~~~~~~~~~~~~~~~~~~~~~~~
Post-Transient Simulation Summary
~~~~~~~~~~~~~~~~~~~~~~~~~~~~~~~~~
   -   To further speed up simulation, consider
          add ++aps on command line
   -   Non-default settings that could significantly slow down simulation
          errpreset = conservative, default moderate
          reltol = 10e-06, default 100e-06 (conservative)
~~~~~~~~~~~~~~~~~~~~~~~~~~~~~~~~~


During simulation, the CPU load for active processors is :
         0 (5.5 %)       1 (17.7 %)      2 (48.2 %)      3 (4.1 %)
         4 (100.0 %)     5 (3.6 %)       6 (23.6 %)      7 (4.5 %)
         8 (5.9 %)       9 (7.7 %)      10 (11.3 %)     11 (18.0 %)
        12 (4.5 %)      13 (24.8 %)     14 (3.2 %)      15 (43.0 %)
        16 (53.8 %)     17 (7.7 %)      18 (6.7 %)      19 (8.2 %)
        20 (100.0 %)    21 (3.2 %)      22 (1.8 %)      23 (5.0 %)
        24 (100.0 %)    25 (4.0 %)      26 (2.7 %)      27 (2.7 %)
        28 (5.4 %)      29 (5.9 %)      30 (24.5 %)     31 (71.3 %)
        32 (3.7 %)      33 (60.2 %)     34 (4.6 %)      35 (4.9 %)
        36 (63.1 %)     37 (6.8 %)      38 (4.1 %)      39 (8.6 %)
        40 (5.9 %)      41 (3.6 %)      42 (2.3 %)      43 (24.0 %)
        44 (3.6 %)      45 (23.3 %)     46 (3.6 %)      47 (3.2 %)
        Total: 954.0%
Initial condition solution time: CPU = 2.882 ms, elapsed = 2.88415 ms.
Intrinsic tran analysis time:    CPU = 452.246 ms, elapsed = 454.081 ms.
Total time required for tran analysis `tran': CPU = 458.184 ms, elapsed = 460.573 ms, util. = 99.5%.
Time accumulated: CPU = 1.57536 s, elapsed = 2.30754 s.
Peak resident memory used = 213 Mbytes.


Notice from spectre during transient analysis `tran', during Monte Carlo analysis `mc1'.
    34 warnings suppressed.

finalTimeOP: writing operating point information to rawfile.

Opening the PSF file ../psf/mc1_separate/001/finalTimeOP.info ...
modelParameter: writing model parameter values to rawfile.

Opening the PSF file ../psf/mc1_separate/001/modelParameter.info ...
element: writing instance parameter values to rawfile.

Opening the PSF file ../psf/mc1_separate/001/element.info ...
outputParameter: writing output parameter values to rawfile.

Opening the PSF file ../psf/mc1_separate/001/outputParameter.info ...
designParamVals: writing netlist parameters to rawfile.

Opening the PSFASCII file ../psf/mc1_separate/001/designParamVals.info ...
primitives: writing primitives to rawfile.

Opening the PSFASCII file ../psf/mc1_separate/001/primitives.info.primitives ...
subckts: writing subcircuits to rawfile.

Opening the PSFASCII file ../psf/mc1_separate/001/subckts.info.subckts ...
2   1.01% 

*****************************************************************************************
* 
* INFO: AMS_processOption = C35B4C3
* 
* INFO: Valid Modules  PIP VG5 HIRES
* 
*****************************************************************************************


Notice from spectre during Monte Carlo analysis `mc1'.
    V8: `period' has the unusually large value of 100 s.


***********************************************
Transient Analysis `tran': time = (0 s -> 50 s)
***********************************************

Opening the PSF file ../psf/mc1_separate/002/tran.tran.tran ...

Warning from spectre during check, during IC analysis, during transient analysis `tran', during Monte Carlo analysis `mc1'.
    WARNING (CMI-2943): Parameter checks have been ignored because the valid value for parameter 'trise' could not be found in 'C1'.
    WARNING (CMI-2943): Parameter checks have been ignored because the valid value for parameter 'trise' could not be found in 'I0.R2.CM'.
    WARNING (CMI-2943): Parameter checks have been ignored because the valid value for parameter 'trise' could not be found in 'I0.R2.CS1'.
    WARNING (CMI-2943): Parameter checks have been ignored because the valid value for parameter 'trise' could not be found in 'I0.R2.CS0'.
    WARNING (CMI-2943): Parameter checks have been ignored because the valid value for parameter 'trise' could not be found in 'I0.C3.C1'.
        Further occurrences of this warning will be suppressed.

Convergence achieved in 12 iterations.
DC simulation time: CPU = 2.593 ms, elapsed = 2.59495 ms.
Important parameter values:
    start = 0 s
    outputstart = 0 s
    stop = 50 s
    step = 50 ms
    maxstep = 500 ms
    ic = all
    useprevic = no
    skipdc = no
    reltol = 10e-06
    abstol(V) = 1 uV
    abstol(I) = 1 pA
    temp = -40 C
    tnom = 27 C
    tempeffects = all
    errpreset = conservative
    method = gear2only
    lteratio = 10
    relref = alllocal
    cmin = 0 F
    gmin = 1 pS
    rabsshort = 1 mOhm


Notice from spectre during transient analysis `tran', during Monte Carlo analysis `mc1'.
    Multithreading is disabled due to the size of the design being too small.


Output and IC/nodeset summary:
                 save   8       (current)
                 save   87      (voltage)

    tran: time = 1.343 s     (2.69 %), step = 104.2 ms     (208 m%)
    tran: time = 3.806 s     (7.61 %), step = 367.7 ms     (735 m%)
    tran: time = 6.608 s     (13.2 %), step = 500 ms          (1 %)
    tran: time = 9.108 s     (18.2 %), step = 500 ms          (1 %)
    tran: time = 11.61 s     (23.2 %), step = 500 ms          (1 %)
    tran: time = 14.11 s     (28.2 %), step = 500 ms          (1 %)
    tran: time = 16.61 s     (33.2 %), step = 500 ms          (1 %)
    tran: time = 19.11 s     (38.2 %), step = 500 ms          (1 %)
    tran: time = 21.61 s     (43.2 %), step = 500 ms          (1 %)
    tran: time = 24.11 s     (48.2 %), step = 500 ms          (1 %)
    tran: time = 26.61 s     (53.2 %), step = 500 ms          (1 %)
    tran: time = 29.11 s     (58.2 %), step = 500 ms          (1 %)
    tran: time = 31.61 s     (63.2 %), step = 500 ms          (1 %)
    tran: time = 34.11 s     (68.2 %), step = 500 ms          (1 %)
    tran: time = 36.61 s     (73.2 %), step = 500 ms          (1 %)
    tran: time = 39.11 s     (78.2 %), step = 500 ms          (1 %)
    tran: time = 41.61 s     (83.2 %), step = 500 ms          (1 %)
    tran: time = 44.11 s     (88.2 %), step = 500 ms          (1 %)
    tran: time = 46.61 s     (93.2 %), step = 500 ms          (1 %)
    tran: time = 49.11 s     (98.2 %), step = 500 ms          (1 %)
Number of accepted tran steps =             741

Maximum value achieved for any signal of each quantity: 
V: V(vout) = 3.3 V
I: I(V8:p) = 6.402 uA

~~~~~~~~~~~~~~~~~~~~~~~~~~~~~~~~~
Post-Transient Simulation Summary
~~~~~~~~~~~~~~~~~~~~~~~~~~~~~~~~~
   -   To further speed up simulation, consider
          add ++aps on command line
   -   Non-default settings that could significantly slow down simulation
          errpreset = conservative, default moderate
          reltol = 10e-06, default 100e-06 (conservative)
~~~~~~~~~~~~~~~~~~~~~~~~~~~~~~~~~


During simulation, the CPU load for active processors is :
         0 (4.5 %)       1 (14.8 %)      2 (57.1 %)      3 (3.7 %)
         4 (100.0 %)     5 (4.0 %)       6 (19.3 %)      7 (4.4 %)
         8 (5.9 %)       9 (9.6 %)      10 (10.2 %)     11 (15.3 %)
        12 (5.5 %)      13 (20.6 %)     14 (3.3 %)      15 (53.7 %)
        16 (44.2 %)     17 (6.6 %)      18 (11.7 %)     19 (7.0 %)
        20 (100.0 %)    21 (3.3 %)      22 (19.6 %)     23 (7.0 %)
        24 (100.0 %)    25 (3.3 %)      26 (3.0 %)      27 (2.2 %)
        28 (9.5 %)      29 (4.8 %)      30 (20.7 %)     31 (62.0 %)
        32 (4.8 %)      33 (67.3 %)     34 (4.5 %)      35 (5.5 %)
        36 (69.3 %)     37 (5.9 %)      38 (9.5 %)      39 (13.9 %)
        40 (8.8 %)      41 (2.9 %)      42 (2.2 %)      43 (20.1 %)
        44 (3.7 %)      45 (23.4 %)     46 (3.3 %)      47 (3.3 %)
        Total: 985.5%
Initial condition solution time: CPU = 2.633 ms, elapsed = 2.63405 ms.
Intrinsic tran analysis time:    CPU = 453.412 ms, elapsed = 454.727 ms.
Total time required for tran analysis `tran': CPU = 458.634 ms, elapsed = 460.699 ms, util. = 99.6%.
Time accumulated: CPU = 2.07461 s, elapsed = 2.8197 s.
Peak resident memory used = 213 Mbytes.


Notice from spectre during transient analysis `tran', during Monte Carlo analysis `mc1'.
    34 warnings suppressed.

finalTimeOP: writing operating point information to rawfile.

Opening the PSF file ../psf/mc1_separate/002/finalTimeOP.info ...
modelParameter: writing model parameter values to rawfile.

Opening the PSF file ../psf/mc1_separate/002/modelParameter.info ...
element: writing instance parameter values to rawfile.

Opening the PSF file ../psf/mc1_separate/002/element.info ...
outputParameter: writing output parameter values to rawfile.

Opening the PSF file ../psf/mc1_separate/002/outputParameter.info ...
designParamVals: writing netlist parameters to rawfile.

Opening the PSFASCII file ../psf/mc1_separate/002/designParamVals.info ...
primitives: writing primitives to rawfile.

Opening the PSFASCII file ../psf/mc1_separate/002/primitives.info.primitives ...
subckts: writing subcircuits to rawfile.

Opening the PSFASCII file ../psf/mc1_separate/002/subckts.info.subckts ...
3   2.02% 

*****************************************************************************************
* 
* INFO: AMS_processOption = C35B4C3
* 
* INFO: Valid Modules  PIP VG5 HIRES
* 
*****************************************************************************************


Notice from spectre during Monte Carlo analysis `mc1'.
    V8: `period' has the unusually large value of 100 s.


***********************************************
Transient Analysis `tran': time = (0 s -> 50 s)
***********************************************

Opening the PSF file ../psf/mc1_separate/003/tran.tran.tran ...

Warning from spectre during check, during IC analysis, during transient analysis `tran', during Monte Carlo analysis `mc1'.
    WARNING (CMI-2943): Parameter checks have been ignored because the valid value for parameter 'trise' could not be found in 'C1'.
    WARNING (CMI-2943): Parameter checks have been ignored because the valid value for parameter 'trise' could not be found in 'I0.R2.CM'.
    WARNING (CMI-2943): Parameter checks have been ignored because the valid value for parameter 'trise' could not be found in 'I0.R2.CS1'.
    WARNING (CMI-2943): Parameter checks have been ignored because the valid value for parameter 'trise' could not be found in 'I0.R2.CS0'.
    WARNING (CMI-2943): Parameter checks have been ignored because the valid value for parameter 'trise' could not be found in 'I0.C3.C1'.
        Further occurrences of this warning will be suppressed.

Convergence achieved in 12 iterations.
DC simulation time: CPU = 2.638 ms, elapsed = 2.63906 ms.
Important parameter values:
    start = 0 s
    outputstart = 0 s
    stop = 50 s
    step = 50 ms
    maxstep = 500 ms
    ic = all
    useprevic = no
    skipdc = no
    reltol = 10e-06
    abstol(V) = 1 uV
    abstol(I) = 1 pA
    temp = -40 C
    tnom = 27 C
    tempeffects = all
    errpreset = conservative
    method = gear2only
    lteratio = 10
    relref = alllocal
    cmin = 0 F
    gmin = 1 pS
    rabsshort = 1 mOhm


Notice from spectre during transient analysis `tran', during Monte Carlo analysis `mc1'.
    Multithreading is disabled due to the size of the design being too small.


Output and IC/nodeset summary:
                 save   8       (current)
                 save   87      (voltage)

    tran: time = 1.274 s     (2.55 %), step = 115.6 ms     (231 m%)
    tran: time = 3.97 s      (7.94 %), step = 394.7 ms     (789 m%)
    tran: time = 6.356 s     (12.7 %), step = 500 ms          (1 %)
    tran: time = 8.856 s     (17.7 %), step = 500 ms          (1 %)
    tran: time = 11.36 s     (22.7 %), step = 500 ms          (1 %)
    tran: time = 13.86 s     (27.7 %), step = 500 ms          (1 %)
    tran: time = 16.36 s     (32.7 %), step = 500 ms          (1 %)
    tran: time = 18.86 s     (37.7 %), step = 500 ms          (1 %)
    tran: time = 21.36 s     (42.7 %), step = 500 ms          (1 %)
    tran: time = 23.86 s     (47.7 %), step = 500 ms          (1 %)
    tran: time = 26.36 s     (52.7 %), step = 500 ms          (1 %)
    tran: time = 28.86 s     (57.7 %), step = 500 ms          (1 %)
    tran: time = 31.36 s     (62.7 %), step = 500 ms          (1 %)
    tran: time = 33.86 s     (67.7 %), step = 500 ms          (1 %)
    tran: time = 36.36 s     (72.7 %), step = 500 ms          (1 %)
    tran: time = 38.86 s     (77.7 %), step = 500 ms          (1 %)
    tran: time = 41.36 s     (82.7 %), step = 500 ms          (1 %)
    tran: time = 43.86 s     (87.7 %), step = 500 ms          (1 %)
    tran: time = 46.36 s     (92.7 %), step = 500 ms          (1 %)
    tran: time = 48.86 s     (97.7 %), step = 500 ms          (1 %)
Number of accepted tran steps =             741

Maximum value achieved for any signal of each quantity: 
V: V(S<0>) = 3.3 V
I: I(V8:p) = 6.277 uA

~~~~~~~~~~~~~~~~~~~~~~~~~~~~~~~~~
Post-Transient Simulation Summary
~~~~~~~~~~~~~~~~~~~~~~~~~~~~~~~~~
   -   To further speed up simulation, consider
          add ++aps on command line
   -   Non-default settings that could significantly slow down simulation
          errpreset = conservative, default moderate
          reltol = 10e-06, default 100e-06 (conservative)
~~~~~~~~~~~~~~~~~~~~~~~~~~~~~~~~~


During simulation, the CPU load for active processors is :
         0 (3.8 %)       1 (12.5 %)      2 (63.6 %)      3 (3.1 %)
         4 (100.0 %)     5 (3.7 %)       6 (16.8 %)      7 (6.5 %)
         8 (5.6 %)       9 (10.5 %)     10 (9.3 %)      11 (13.8 %)
        12 (5.2 %)      13 (17.8 %)     14 (3.4 %)      15 (61.0 %)
        16 (38.0 %)     17 (6.5 %)      18 (10.2 %)     19 (7.2 %)
        20 (100.0 %)    21 (7.8 %)      22 (31.8 %)     23 (7.2 %)
        24 (100.0 %)    25 (3.7 %)      26 (2.8 %)      27 (2.5 %)
        28 (24.0 %)     29 (4.7 %)      30 (17.4 %)     31 (65.7 %)
        32 (6.6 %)      33 (59.4 %)     34 (5.9 %)      35 (4.9 %)
        36 (74.1 %)     37 (6.2 %)      38 (23.8 %)     39 (27.5 %)
        40 (7.4 %)      41 (3.4 %)      42 (2.2 %)      43 (17.1 %)
        44 (3.7 %)      45 (22.8 %)     46 (3.1 %)      47 (2.8 %)
        Total: 1037.3%
Initial condition solution time: CPU = 2.689 ms, elapsed = 2.69103 ms.
Intrinsic tran analysis time:    CPU = 451.171 ms, elapsed = 452.73 ms.
Total time required for tran analysis `tran': CPU = 456.514 ms, elapsed = 459.226 ms, util. = 99.4%.
Time accumulated: CPU = 2.5719 s, elapsed = 3.33073 s.
Peak resident memory used = 213 Mbytes.


Notice from spectre during transient analysis `tran', during Monte Carlo analysis `mc1'.
    34 warnings suppressed.

finalTimeOP: writing operating point information to rawfile.

Opening the PSF file ../psf/mc1_separate/003/finalTimeOP.info ...
modelParameter: writing model parameter values to rawfile.

Opening the PSF file ../psf/mc1_separate/003/modelParameter.info ...
element: writing instance parameter values to rawfile.

Opening the PSF file ../psf/mc1_separate/003/element.info ...
outputParameter: writing output parameter values to rawfile.

Opening the PSF file ../psf/mc1_separate/003/outputParameter.info ...
designParamVals: writing netlist parameters to rawfile.

Opening the PSFASCII file ../psf/mc1_separate/003/designParamVals.info ...
primitives: writing primitives to rawfile.

Opening the PSFASCII file ../psf/mc1_separate/003/primitives.info.primitives ...
subckts: writing subcircuits to rawfile.

Opening the PSFASCII file ../psf/mc1_separate/003/subckts.info.subckts ...
4   3.03% 

*****************************************************************************************
* 
* INFO: AMS_processOption = C35B4C3
* 
* INFO: Valid Modules  PIP VG5 HIRES
* 
*****************************************************************************************


Notice from spectre during Monte Carlo analysis `mc1'.
    V8: `period' has the unusually large value of 100 s.


***********************************************
Transient Analysis `tran': time = (0 s -> 50 s)
***********************************************

Opening the PSF file ../psf/mc1_separate/004/tran.tran.tran ...

Warning from spectre during check, during IC analysis, during transient analysis `tran', during Monte Carlo analysis `mc1'.
    WARNING (CMI-2943): Parameter checks have been ignored because the valid value for parameter 'trise' could not be found in 'C1'.
    WARNING (CMI-2943): Parameter checks have been ignored because the valid value for parameter 'trise' could not be found in 'I0.R2.CM'.
    WARNING (CMI-2943): Parameter checks have been ignored because the valid value for parameter 'trise' could not be found in 'I0.R2.CS1'.
    WARNING (CMI-2943): Parameter checks have been ignored because the valid value for parameter 'trise' could not be found in 'I0.R2.CS0'.
    WARNING (CMI-2943): Parameter checks have been ignored because the valid value for parameter 'trise' could not be found in 'I0.C3.C1'.
        Further occurrences of this warning will be suppressed.

Convergence achieved in 12 iterations.
DC simulation time: CPU = 2.436 ms, elapsed = 2.43688 ms.
Important parameter values:
    start = 0 s
    outputstart = 0 s
    stop = 50 s
    step = 50 ms
    maxstep = 500 ms
    ic = all
    useprevic = no
    skipdc = no
    reltol = 10e-06
    abstol(V) = 1 uV
    abstol(I) = 1 pA
    temp = -40 C
    tnom = 27 C
    tempeffects = all
    errpreset = conservative
    method = gear2only
    lteratio = 10
    relref = alllocal
    cmin = 0 F
    gmin = 1 pS
    rabsshort = 1 mOhm


Notice from spectre during transient analysis `tran', during Monte Carlo analysis `mc1'.
    Multithreading is disabled due to the size of the design being too small.


Output and IC/nodeset summary:
                 save   8       (current)
                 save   87      (voltage)

    tran: time = 1.275 s     (2.55 %), step = 117.9 ms     (236 m%)
    tran: time = 4.013 s     (8.03 %), step = 398.6 ms     (797 m%)
    tran: time = 6.411 s     (12.8 %), step = 500 ms          (1 %)
    tran: time = 8.911 s     (17.8 %), step = 500 ms          (1 %)
    tran: time = 11.41 s     (22.8 %), step = 500 ms          (1 %)
    tran: time = 13.91 s     (27.8 %), step = 500 ms          (1 %)
    tran: time = 16.41 s     (32.8 %), step = 500 ms          (1 %)
    tran: time = 18.91 s     (37.8 %), step = 500 ms          (1 %)
    tran: time = 21.41 s     (42.8 %), step = 500 ms          (1 %)
    tran: time = 23.91 s     (47.8 %), step = 500 ms          (1 %)
    tran: time = 26.41 s     (52.8 %), step = 500 ms          (1 %)
    tran: time = 28.91 s     (57.8 %), step = 500 ms          (1 %)
    tran: time = 31.41 s     (62.8 %), step = 500 ms          (1 %)
    tran: time = 33.91 s     (67.8 %), step = 500 ms          (1 %)
    tran: time = 36.41 s     (72.8 %), step = 500 ms          (1 %)
    tran: time = 38.91 s     (77.8 %), step = 500 ms          (1 %)
    tran: time = 41.41 s     (82.8 %), step = 500 ms          (1 %)
    tran: time = 43.91 s     (87.8 %), step = 500 ms          (1 %)
    tran: time = 46.41 s     (92.8 %), step = 500 ms          (1 %)
    tran: time = 48.91 s     (97.8 %), step = 500 ms          (1 %)
Number of accepted tran steps =             748

Maximum value achieved for any signal of each quantity: 
V: V(vout) = 3.3 V
I: I(V8:p) = 6.601 uA

~~~~~~~~~~~~~~~~~~~~~~~~~~~~~~~~~
Post-Transient Simulation Summary
~~~~~~~~~~~~~~~~~~~~~~~~~~~~~~~~~
   -   To further speed up simulation, consider
          add ++aps on command line
   -   Non-default settings that could significantly slow down simulation
          errpreset = conservative, default moderate
          reltol = 10e-06, default 100e-06 (conservative)
~~~~~~~~~~~~~~~~~~~~~~~~~~~~~~~~~


During simulation, the CPU load for active processors is :
         0 (3.6 %)       1 (13.4 %)      2 (55.6 %)      3 (3.0 %)
         4 (97.6 %)      5 (3.8 %)       6 (15.4 %)      7 (6.4 %)
         8 (15.8 %)      9 (9.9 %)      10 (8.8 %)      11 (12.5 %)
        12 (6.3 %)      13 (15.9 %)     14 (3.0 %)      15 (66.4 %)
        16 (46.4 %)     17 (7.3 %)      18 (9.9 %)      19 (6.5 %)
        20 (100.0 %)    21 (20.5 %)     22 (27.7 %)     23 (8.1 %)
        24 (100.0 %)    25 (3.5 %)      26 (2.7 %)      27 (2.7 %)
        28 (33.3 %)     29 (4.6 %)      30 (15.1 %)     31 (69.9 %)
        32 (8.6 %)      33 (51.9 %)     34 (5.9 %)      35 (4.8 %)
        36 (71.7 %)     37 (5.7 %)      38 (33.4 %)     39 (36.5 %)
        40 (7.2 %)      41 (3.2 %)      42 (8.6 %)      43 (15.2 %)
        44 (3.8 %)      45 (22.6 %)     46 (3.2 %)      47 (2.7 %)
        Total: 1080.7%
Initial condition solution time: CPU = 2.479 ms, elapsed = 2.48098 ms.
Intrinsic tran analysis time:    CPU = 455.216 ms, elapsed = 456.719 ms.
Total time required for tran analysis `tran': CPU = 460.413 ms, elapsed = 462.66 ms, util. = 99.5%.
Time accumulated: CPU = 3.07369 s, elapsed = 3.84642 s.
Peak resident memory used = 213 Mbytes.


Notice from spectre during transient analysis `tran', during Monte Carlo analysis `mc1'.
    34 warnings suppressed.

finalTimeOP: writing operating point information to rawfile.

Opening the PSF file ../psf/mc1_separate/004/finalTimeOP.info ...
modelParameter: writing model parameter values to rawfile.

Opening the PSF file ../psf/mc1_separate/004/modelParameter.info ...
element: writing instance parameter values to rawfile.

Opening the PSF file ../psf/mc1_separate/004/element.info ...
outputParameter: writing output parameter values to rawfile.

Opening the PSF file ../psf/mc1_separate/004/outputParameter.info ...
designParamVals: writing netlist parameters to rawfile.

Opening the PSFASCII file ../psf/mc1_separate/004/designParamVals.info ...
primitives: writing primitives to rawfile.

Opening the PSFASCII file ../psf/mc1_separate/004/primitives.info.primitives ...
subckts: writing subcircuits to rawfile.

Opening the PSFASCII file ../psf/mc1_separate/004/subckts.info.subckts ...
    mc1: iteration = 4           (3.03 %), step = 1            (1.01 %)
5   4.04% 

*****************************************************************************************
* 
* INFO: AMS_processOption = C35B4C3
* 
* INFO: Valid Modules  PIP VG5 HIRES
* 
*****************************************************************************************


Notice from spectre during Monte Carlo analysis `mc1'.
    V8: `period' has the unusually large value of 100 s.


***********************************************
Transient Analysis `tran': time = (0 s -> 50 s)
***********************************************

Opening the PSF file ../psf/mc1_separate/005/tran.tran.tran ...

Warning from spectre during check, during IC analysis, during transient analysis `tran', during Monte Carlo analysis `mc1'.
    WARNING (CMI-2943): Parameter checks have been ignored because the valid value for parameter 'trise' could not be found in 'C1'.
    WARNING (CMI-2943): Parameter checks have been ignored because the valid value for parameter 'trise' could not be found in 'I0.R2.CM'.
    WARNING (CMI-2943): Parameter checks have been ignored because the valid value for parameter 'trise' could not be found in 'I0.R2.CS1'.
    WARNING (CMI-2943): Parameter checks have been ignored because the valid value for parameter 'trise' could not be found in 'I0.R2.CS0'.
    WARNING (CMI-2943): Parameter checks have been ignored because the valid value for parameter 'trise' could not be found in 'I0.C3.C1'.
        Further occurrences of this warning will be suppressed.

Convergence achieved in 12 iterations.
DC simulation time: CPU = 2.381 ms, elapsed = 2.38085 ms.
Important parameter values:
    start = 0 s
    outputstart = 0 s
    stop = 50 s
    step = 50 ms
    maxstep = 500 ms
    ic = all
    useprevic = no
    skipdc = no
    reltol = 10e-06
    abstol(V) = 1 uV
    abstol(I) = 1 pA
    temp = -40 C
    tnom = 27 C
    tempeffects = all
    errpreset = conservative
    method = gear2only
    lteratio = 10
    relref = alllocal
    cmin = 0 F
    gmin = 1 pS
    rabsshort = 1 mOhm


Notice from spectre during transient analysis `tran', during Monte Carlo analysis `mc1'.
    Multithreading is disabled due to the size of the design being too small.


Output and IC/nodeset summary:
                 save   8       (current)
                 save   87      (voltage)

    tran: time = 1.298 s      (2.6 %), step = 101 ms       (202 m%)
    tran: time = 4.066 s     (8.13 %), step = 387 ms       (774 m%)
    tran: time = 6.432 s     (12.9 %), step = 500 ms          (1 %)
    tran: time = 8.932 s     (17.9 %), step = 500 ms          (1 %)
    tran: time = 11.43 s     (22.9 %), step = 500 ms          (1 %)
    tran: time = 13.93 s     (27.9 %), step = 500 ms          (1 %)
    tran: time = 16.43 s     (32.9 %), step = 500 ms          (1 %)
    tran: time = 18.93 s     (37.9 %), step = 500 ms          (1 %)
    tran: time = 21.43 s     (42.9 %), step = 500 ms          (1 %)
    tran: time = 23.93 s     (47.9 %), step = 500 ms          (1 %)
    tran: time = 26.43 s     (52.9 %), step = 500 ms          (1 %)
    tran: time = 28.93 s     (57.9 %), step = 500 ms          (1 %)
    tran: time = 31.43 s     (62.9 %), step = 500 ms          (1 %)
    tran: time = 33.93 s     (67.9 %), step = 500 ms          (1 %)
    tran: time = 36.43 s     (72.9 %), step = 500 ms          (1 %)
    tran: time = 38.93 s     (77.9 %), step = 500 ms          (1 %)
    tran: time = 41.43 s     (82.9 %), step = 500 ms          (1 %)
    tran: time = 43.93 s     (87.9 %), step = 500 ms          (1 %)
    tran: time = 46.43 s     (92.9 %), step = 500 ms          (1 %)
    tran: time = 48.93 s     (97.9 %), step = 500 ms          (1 %)
Number of accepted tran steps =             735

Maximum value achieved for any signal of each quantity: 
V: V(vout) = 3.3 V
I: I(V8:p) = 6.489 uA

~~~~~~~~~~~~~~~~~~~~~~~~~~~~~~~~~
Post-Transient Simulation Summary
~~~~~~~~~~~~~~~~~~~~~~~~~~~~~~~~~
   -   To further speed up simulation, consider
          add ++aps on command line
   -   Non-default settings that could significantly slow down simulation
          errpreset = conservative, default moderate
          reltol = 10e-06, default 100e-06 (conservative)
~~~~~~~~~~~~~~~~~~~~~~~~~~~~~~~~~


During simulation, the CPU load for active processors is :
         0 (3.9 %)       1 (13.6 %)      2 (49.5 %)      3 (3.3 %)
         4 (88.1 %)      5 (10.2 %)      6 (14.0 %)      7 (5.7 %)
         8 (25.5 %)      9 (11.3 %)     10 (8.3 %)      11 (13.6 %)
        12 (9.3 %)      13 (14.5 %)     14 (3.1 %)      15 (70.4 %)
        16 (42.2 %)     17 (8.5 %)      18 (11.0 %)     19 (6.4 %)
        20 (100.0 %)    21 (23.8 %)     22 (35.5 %)     23 (7.2 %)
        24 (100.0 %)    25 (3.3 %)      26 (3.1 %)      27 (3.5 %)
        28 (41.2 %)     29 (4.5 %)      30 (13.8 %)     31 (73.0 %)
        32 (10.0 %)     33 (46.1 %)     34 (5.5 %)      35 (4.3 %)
        36 (70.2 %)     37 (5.7 %)      38 (34.6 %)     39 (44.0 %)
        40 (6.6 %)      41 (3.3 %)      42 (19.2 %)     43 (13.9 %)
        44 (3.6 %)      45 (22.1 %)     46 (2.9 %)      47 (3.1 %)
        Total: 1116.2%
Initial condition solution time: CPU = 2.426 ms, elapsed = 2.4271 ms.
Intrinsic tran analysis time:    CPU = 440.986 ms, elapsed = 442.559 ms.
Total time required for tran analysis `tran': CPU = 445.92 ms, elapsed = 448.2 ms, util. = 99.5%.
Time accumulated: CPU = 3.56461 s, elapsed = 4.35129 s.
Peak resident memory used = 213 Mbytes.


Notice from spectre during transient analysis `tran', during Monte Carlo analysis `mc1'.
    34 warnings suppressed.

finalTimeOP: writing operating point information to rawfile.

Opening the PSF file ../psf/mc1_separate/005/finalTimeOP.info ...
modelParameter: writing model parameter values to rawfile.

Opening the PSF file ../psf/mc1_separate/005/modelParameter.info ...
element: writing instance parameter values to rawfile.

Opening the PSF file ../psf/mc1_separate/005/element.info ...
outputParameter: writing output parameter values to rawfile.

Opening the PSF file ../psf/mc1_separate/005/outputParameter.info ...
designParamVals: writing netlist parameters to rawfile.

Opening the PSFASCII file ../psf/mc1_separate/005/designParamVals.info ...
primitives: writing primitives to rawfile.

Opening the PSFASCII file ../psf/mc1_separate/005/primitives.info.primitives ...
subckts: writing subcircuits to rawfile.

Opening the PSFASCII file ../psf/mc1_separate/005/subckts.info.subckts ...
    mc1: iteration = 5           (4.04 %), step = 1            (1.01 %)
6   5.05% 

*****************************************************************************************
* 
* INFO: AMS_processOption = C35B4C3
* 
* INFO: Valid Modules  PIP VG5 HIRES
* 
*****************************************************************************************


Notice from spectre during Monte Carlo analysis `mc1'.
    V8: `period' has the unusually large value of 100 s.


***********************************************
Transient Analysis `tran': time = (0 s -> 50 s)
***********************************************

Opening the PSF file ../psf/mc1_separate/006/tran.tran.tran ...

Warning from spectre during check, during IC analysis, during transient analysis `tran', during Monte Carlo analysis `mc1'.
    WARNING (CMI-2943): Parameter checks have been ignored because the valid value for parameter 'trise' could not be found in 'C1'.
    WARNING (CMI-2943): Parameter checks have been ignored because the valid value for parameter 'trise' could not be found in 'I0.R2.CM'.
    WARNING (CMI-2943): Parameter checks have been ignored because the valid value for parameter 'trise' could not be found in 'I0.R2.CS1'.
    WARNING (CMI-2943): Parameter checks have been ignored because the valid value for parameter 'trise' could not be found in 'I0.R2.CS0'.
    WARNING (CMI-2943): Parameter checks have been ignored because the valid value for parameter 'trise' could not be found in 'I0.C3.C1'.
        Further occurrences of this warning will be suppressed.

Convergence achieved in 12 iterations.
DC simulation time: CPU = 2.593 ms, elapsed = 2.59399 ms.
Important parameter values:
    start = 0 s
    outputstart = 0 s
    stop = 50 s
    step = 50 ms
    maxstep = 500 ms
    ic = all
    useprevic = no
    skipdc = no
    reltol = 10e-06
    abstol(V) = 1 uV
    abstol(I) = 1 pA
    temp = -40 C
    tnom = 27 C
    tempeffects = all
    errpreset = conservative
    method = gear2only
    lteratio = 10
    relref = alllocal
    cmin = 0 F
    gmin = 1 pS
    rabsshort = 1 mOhm


Notice from spectre during transient analysis `tran', during Monte Carlo analysis `mc1'.
    Multithreading is disabled due to the size of the design being too small.


Output and IC/nodeset summary:
                 save   8       (current)
                 save   87      (voltage)

    tran: time = 1.276 s     (2.55 %), step = 109.3 ms     (219 m%)
    tran: time = 3.824 s     (7.65 %), step = 365.2 ms     (730 m%)
    tran: time = 6.601 s     (13.2 %), step = 500 ms          (1 %)
    tran: time = 9.101 s     (18.2 %), step = 500 ms          (1 %)
    tran: time = 11.6 s      (23.2 %), step = 500 ms          (1 %)
    tran: time = 14.1 s      (28.2 %), step = 500 ms          (1 %)
    tran: time = 16.6 s      (33.2 %), step = 500 ms          (1 %)
    tran: time = 19.1 s      (38.2 %), step = 500 ms          (1 %)
    tran: time = 21.6 s      (43.2 %), step = 500 ms          (1 %)
    tran: time = 24.1 s      (48.2 %), step = 500 ms          (1 %)
    tran: time = 26.6 s      (53.2 %), step = 500 ms          (1 %)
    tran: time = 29.1 s      (58.2 %), step = 500 ms          (1 %)
    tran: time = 31.6 s      (63.2 %), step = 500 ms          (1 %)
    tran: time = 34.1 s      (68.2 %), step = 500 ms          (1 %)
    tran: time = 36.6 s      (73.2 %), step = 500 ms          (1 %)
    tran: time = 39.1 s      (78.2 %), step = 500 ms          (1 %)
    tran: time = 41.6 s      (83.2 %), step = 500 ms          (1 %)
    tran: time = 44.1 s      (88.2 %), step = 500 ms          (1 %)
    tran: time = 46.6 s      (93.2 %), step = 500 ms          (1 %)
    tran: time = 49.1 s      (98.2 %), step = 500 ms          (1 %)
Number of accepted tran steps =             741

Maximum value achieved for any signal of each quantity: 
V: V(vout) = 3.3 V
I: I(V8:p) = 6.529 uA

~~~~~~~~~~~~~~~~~~~~~~~~~~~~~~~~~
Post-Transient Simulation Summary
~~~~~~~~~~~~~~~~~~~~~~~~~~~~~~~~~
   -   To further speed up simulation, consider
          add ++aps on command line
   -   Non-default settings that could significantly slow down simulation
          errpreset = conservative, default moderate
          reltol = 10e-06, default 100e-06 (conservative)
~~~~~~~~~~~~~~~~~~~~~~~~~~~~~~~~~


During simulation, the CPU load for active processors is :
         0 (4.1 %)       1 (12.3 %)      2 (45.5 %)      3 (3.2 %)
         4 (88.1 %)      5 (10.0 %)      6 (12.5 %)      7 (5.7 %)
         8 (23.1 %)      9 (10.3 %)     10 (7.4 %)      11 (22.9 %)
        12 (18.5 %)     13 (13.7 %)     14 (3.0 %)      15 (73.6 %)
        16 (38.3 %)     17 (8.0 %)      18 (10.3 %)     19 (6.2 %)
        20 (100.0 %)    21 (21.7 %)     22 (42.0 %)     23 (6.6 %)
        24 (100.0 %)    25 (4.6 %)      26 (3.0 %)      27 (4.0 %)
        28 (47.4 %)     29 (4.2 %)      30 (13.3 %)     31 (75.9 %)
        32 (11.0 %)     33 (41.7 %)     34 (5.3 %)      35 (4.2 %)
        36 (71.8 %)     37 (5.7 %)      38 (31.8 %)     39 (45.3 %)
        40 (6.7 %)      41 (3.4 %)      42 (22.9 %)     43 (12.9 %)
        44 (7.4 %)      45 (25.2 %)     46 (7.4 %)      47 (6.1 %)
        Total: 1148.1%
Initial condition solution time: CPU = 2.673 ms, elapsed = 2.6741 ms.
Intrinsic tran analysis time:    CPU = 458.158 ms, elapsed = 459.585 ms.
Total time required for tran analysis `tran': CPU = 463.34 ms, elapsed = 465.555 ms, util. = 99.5%.
Time accumulated: CPU = 4.06976 s, elapsed = 4.87096 s.
Peak resident memory used = 213 Mbytes.


Notice from spectre during transient analysis `tran', during Monte Carlo analysis `mc1'.
    34 warnings suppressed.

finalTimeOP: writing operating point information to rawfile.

Opening the PSF file ../psf/mc1_separate/006/finalTimeOP.info ...
modelParameter: writing model parameter values to rawfile.

Opening the PSF file ../psf/mc1_separate/006/modelParameter.info ...
element: writing instance parameter values to rawfile.

Opening the PSF file ../psf/mc1_separate/006/element.info ...
outputParameter: writing output parameter values to rawfile.

Opening the PSF file ../psf/mc1_separate/006/outputParameter.info ...
designParamVals: writing netlist parameters to rawfile.

Opening the PSFASCII file ../psf/mc1_separate/006/designParamVals.info ...
primitives: writing primitives to rawfile.

Opening the PSFASCII file ../psf/mc1_separate/006/primitives.info.primitives ...
subckts: writing subcircuits to rawfile.

Opening the PSFASCII file ../psf/mc1_separate/006/subckts.info.subckts ...
    mc1: iteration = 6           (5.05 %), step = 1            (1.01 %)
7   6.06% 

*****************************************************************************************
* 
* INFO: AMS_processOption = C35B4C3
* 
* INFO: Valid Modules  PIP VG5 HIRES
* 
*****************************************************************************************


Notice from spectre during Monte Carlo analysis `mc1'.
    V8: `period' has the unusually large value of 100 s.


***********************************************
Transient Analysis `tran': time = (0 s -> 50 s)
***********************************************

Opening the PSF file ../psf/mc1_separate/007/tran.tran.tran ...

Warning from spectre during check, during IC analysis, during transient analysis `tran', during Monte Carlo analysis `mc1'.
    WARNING (CMI-2943): Parameter checks have been ignored because the valid value for parameter 'trise' could not be found in 'C1'.
    WARNING (CMI-2943): Parameter checks have been ignored because the valid value for parameter 'trise' could not be found in 'I0.R2.CM'.
    WARNING (CMI-2943): Parameter checks have been ignored because the valid value for parameter 'trise' could not be found in 'I0.R2.CS1'.
    WARNING (CMI-2943): Parameter checks have been ignored because the valid value for parameter 'trise' could not be found in 'I0.R2.CS0'.
    WARNING (CMI-2943): Parameter checks have been ignored because the valid value for parameter 'trise' could not be found in 'I0.C3.C1'.
        Further occurrences of this warning will be suppressed.

Convergence achieved in 12 iterations.
DC simulation time: CPU = 2.646 ms, elapsed = 2.64597 ms.
Important parameter values:
    start = 0 s
    outputstart = 0 s
    stop = 50 s
    step = 50 ms
    maxstep = 500 ms
    ic = all
    useprevic = no
    skipdc = no
    reltol = 10e-06
    abstol(V) = 1 uV
    abstol(I) = 1 pA
    temp = -40 C
    tnom = 27 C
    tempeffects = all
    errpreset = conservative
    method = gear2only
    lteratio = 10
    relref = alllocal
    cmin = 0 F
    gmin = 1 pS
    rabsshort = 1 mOhm


Notice from spectre during transient analysis `tran', during Monte Carlo analysis `mc1'.
    Multithreading is disabled due to the size of the design being too small.


Output and IC/nodeset summary:
                 save   8       (current)
                 save   87      (voltage)

    tran: time = 1.265 s     (2.53 %), step = 101 ms       (202 m%)
    tran: time = 4.041 s     (8.08 %), step = 393.1 ms     (786 m%)
    tran: time = 6.419 s     (12.8 %), step = 500 ms          (1 %)
    tran: time = 8.919 s     (17.8 %), step = 500 ms          (1 %)
    tran: time = 11.42 s     (22.8 %), step = 500 ms          (1 %)
    tran: time = 13.92 s     (27.8 %), step = 500 ms          (1 %)
    tran: time = 16.42 s     (32.8 %), step = 500 ms          (1 %)
    tran: time = 18.92 s     (37.8 %), step = 500 ms          (1 %)
    tran: time = 21.42 s     (42.8 %), step = 500 ms          (1 %)
    tran: time = 23.92 s     (47.8 %), step = 500 ms          (1 %)
    tran: time = 26.42 s     (52.8 %), step = 500 ms          (1 %)
    tran: time = 28.92 s     (57.8 %), step = 500 ms          (1 %)
    tran: time = 31.42 s     (62.8 %), step = 500 ms          (1 %)
    tran: time = 33.92 s     (67.8 %), step = 500 ms          (1 %)
    tran: time = 36.42 s     (72.8 %), step = 500 ms          (1 %)
    tran: time = 38.92 s     (77.8 %), step = 500 ms          (1 %)
    tran: time = 41.42 s     (82.8 %), step = 500 ms          (1 %)
    tran: time = 43.92 s     (87.8 %), step = 500 ms          (1 %)
    tran: time = 46.42 s     (92.8 %), step = 500 ms          (1 %)
    tran: time = 48.92 s     (97.8 %), step = 500 ms          (1 %)
Number of accepted tran steps =             741

Maximum value achieved for any signal of each quantity: 
V: V(vout) = 3.3 V
I: I(V8:p) = 6.432 uA

~~~~~~~~~~~~~~~~~~~~~~~~~~~~~~~~~
Post-Transient Simulation Summary
~~~~~~~~~~~~~~~~~~~~~~~~~~~~~~~~~
   -   To further speed up simulation, consider
          add ++aps on command line
   -   Non-default settings that could significantly slow down simulation
          errpreset = conservative, default moderate
          reltol = 10e-06, default 100e-06 (conservative)
~~~~~~~~~~~~~~~~~~~~~~~~~~~~~~~~~


During simulation, the CPU load for active processors is :
         0 (4.1 %)       1 (12.6 %)      2 (50.1 %)      3 (3.1 %)
         4 (89.1 %)      5 (10.5 %)      6 (11.5 %)      7 (5.5 %)
         8 (21.6 %)      9 (12.9 %)     10 (7.4 %)      11 (23.0 %)
        12 (26.0 %)     13 (13.0 %)     14 (2.9 %)      15 (76.2 %)
        16 (34.8 %)     17 (7.6 %)      18 (9.5 %)      19 (5.8 %)
        20 (100.0 %)    21 (20.7 %)     22 (47.6 %)     23 (6.1 %)
        24 (100.0 %)    25 (4.5 %)      26 (3.2 %)      27 (4.0 %)
        28 (51.9 %)     29 (4.0 %)      30 (13.9 %)     31 (78.0 %)
        32 (12.2 %)     33 (38.1 %)     34 (5.3 %)      35 (4.0 %)
        36 (65.8 %)     37 (5.2 %)      38 (28.9 %)     39 (40.9 %)
        40 (7.0 %)      41 (3.2 %)      42 (21.9 %)     43 (12.2 %)
        44 (6.7 %)      45 (31.7 %)     46 (16.8 %)     47 (15.6 %)
        Total: 1176.5%
Initial condition solution time: CPU = 2.689 ms, elapsed = 2.69103 ms.
Intrinsic tran analysis time:    CPU = 459.571 ms, elapsed = 461.239 ms.
Total time required for tran analysis `tran': CPU = 465.307 ms, elapsed = 467.642 ms, util. = 99.5%.
Time accumulated: CPU = 4.57791 s, elapsed = 5.39285 s.
Peak resident memory used = 213 Mbytes.


Notice from spectre during transient analysis `tran', during Monte Carlo analysis `mc1'.
    34 warnings suppressed.

finalTimeOP: writing operating point information to rawfile.

Opening the PSF file ../psf/mc1_separate/007/finalTimeOP.info ...
modelParameter: writing model parameter values to rawfile.

Opening the PSF file ../psf/mc1_separate/007/modelParameter.info ...
element: writing instance parameter values to rawfile.

Opening the PSF file ../psf/mc1_separate/007/element.info ...
outputParameter: writing output parameter values to rawfile.

Opening the PSF file ../psf/mc1_separate/007/outputParameter.info ...
designParamVals: writing netlist parameters to rawfile.

Opening the PSFASCII file ../psf/mc1_separate/007/designParamVals.info ...
primitives: writing primitives to rawfile.

Opening the PSFASCII file ../psf/mc1_separate/007/primitives.info.primitives ...
subckts: writing subcircuits to rawfile.

Opening the PSFASCII file ../psf/mc1_separate/007/subckts.info.subckts ...
    mc1: iteration = 7           (6.06 %), step = 1            (1.01 %)
8   7.07% 

*****************************************************************************************
* 
* INFO: AMS_processOption = C35B4C3
* 
* INFO: Valid Modules  PIP VG5 HIRES
* 
*****************************************************************************************


Notice from spectre during Monte Carlo analysis `mc1'.
    V8: `period' has the unusually large value of 100 s.


***********************************************
Transient Analysis `tran': time = (0 s -> 50 s)
***********************************************

Opening the PSF file ../psf/mc1_separate/008/tran.tran.tran ...

Warning from spectre during check, during IC analysis, during transient analysis `tran', during Monte Carlo analysis `mc1'.
    WARNING (CMI-2943): Parameter checks have been ignored because the valid value for parameter 'trise' could not be found in 'C1'.
    WARNING (CMI-2943): Parameter checks have been ignored because the valid value for parameter 'trise' could not be found in 'I0.R2.CM'.
    WARNING (CMI-2943): Parameter checks have been ignored because the valid value for parameter 'trise' could not be found in 'I0.R2.CS1'.
    WARNING (CMI-2943): Parameter checks have been ignored because the valid value for parameter 'trise' could not be found in 'I0.R2.CS0'.
    WARNING (CMI-2943): Parameter checks have been ignored because the valid value for parameter 'trise' could not be found in 'I0.C3.C1'.
        Further occurrences of this warning will be suppressed.

Convergence achieved in 12 iterations.
DC simulation time: CPU = 2.764 ms, elapsed = 2.76494 ms.
Important parameter values:
    start = 0 s
    outputstart = 0 s
    stop = 50 s
    step = 50 ms
    maxstep = 500 ms
    ic = all
    useprevic = no
    skipdc = no
    reltol = 10e-06
    abstol(V) = 1 uV
    abstol(I) = 1 pA
    temp = -40 C
    tnom = 27 C
    tempeffects = all
    errpreset = conservative
    method = gear2only
    lteratio = 10
    relref = alllocal
    cmin = 0 F
    gmin = 1 pS
    rabsshort = 1 mOhm


Notice from spectre during transient analysis `tran', during Monte Carlo analysis `mc1'.
    Multithreading is disabled due to the size of the design being too small.


Output and IC/nodeset summary:
                 save   8       (current)
                 save   87      (voltage)

    tran: time = 1.258 s     (2.52 %), step = 96.08 ms     (192 m%)
    tran: time = 3.905 s     (7.81 %), step = 375.6 ms     (751 m%)
    tran: time = 6.738 s     (13.5 %), step = 500 ms          (1 %)
    tran: time = 9.238 s     (18.5 %), step = 500 ms          (1 %)
    tran: time = 11.74 s     (23.5 %), step = 500 ms          (1 %)
    tran: time = 14.24 s     (28.5 %), step = 500 ms          (1 %)
    tran: time = 16.74 s     (33.5 %), step = 500 ms          (1 %)
    tran: time = 19.24 s     (38.5 %), step = 500 ms          (1 %)
    tran: time = 21.74 s     (43.5 %), step = 500 ms          (1 %)
    tran: time = 24.24 s     (48.5 %), step = 500 ms          (1 %)
    tran: time = 26.74 s     (53.5 %), step = 500 ms          (1 %)
    tran: time = 29.24 s     (58.5 %), step = 500 ms          (1 %)
    tran: time = 31.74 s     (63.5 %), step = 500 ms          (1 %)
    tran: time = 34.24 s     (68.5 %), step = 500 ms          (1 %)
    tran: time = 36.74 s     (73.5 %), step = 500 ms          (1 %)
    tran: time = 39.24 s     (78.5 %), step = 500 ms          (1 %)
    tran: time = 41.74 s     (83.5 %), step = 500 ms          (1 %)
    tran: time = 44.24 s     (88.5 %), step = 500 ms          (1 %)
    tran: time = 46.74 s     (93.5 %), step = 500 ms          (1 %)
    tran: time = 49.24 s     (98.5 %), step = 500 ms          (1 %)
Number of accepted tran steps =             742

Maximum value achieved for any signal of each quantity: 
V: V(vout_filt) = 3.3 V
I: I(V8:p) = 6.471 uA

~~~~~~~~~~~~~~~~~~~~~~~~~~~~~~~~~
Post-Transient Simulation Summary
~~~~~~~~~~~~~~~~~~~~~~~~~~~~~~~~~
   -   To further speed up simulation, consider
          add ++aps on command line
   -   Non-default settings that could significantly slow down simulation
          errpreset = conservative, default moderate
          reltol = 10e-06, default 100e-06 (conservative)
~~~~~~~~~~~~~~~~~~~~~~~~~~~~~~~~~


During simulation, the CPU load for active processors is :
         0 (6.0 %)       1 (11.9 %)      2 (47.5 %)      3 (3.5 %)
         4 (89.7 %)      5 (10.5 %)      6 (10.8 %)      7 (6.8 %)
         8 (20.0 %)      9 (12.6 %)     10 (7.0 %)      11 (21.5 %)
        12 (24.4 %)     13 (18.2 %)     14 (4.2 %)      15 (78.4 %)
        16 (32.4 %)     17 (8.1 %)      18 (9.0 %)      19 (5.7 %)
        20 (100.0 %)    21 (27.4 %)     22 (51.0 %)     23 (6.5 %)
        24 (100.0 %)    25 (4.3 %)      26 (3.0 %)      27 (4.0 %)
        28 (55.7 %)     29 (4.0 %)      30 (12.8 %)     31 (79.5 %)
        32 (11.5 %)     33 (36.6 %)     34 (5.0 %)      35 (3.6 %)
        36 (60.7 %)     37 (5.1 %)      38 (26.6 %)     39 (38.0 %)
        40 (7.3 %)      41 (3.3 %)      42 (24.8 %)     43 (11.8 %)
        44 (7.8 %)      45 (37.6 %)     46 (23.6 %)     47 (19.7 %)
        Total: 1199.2%
Initial condition solution time: CPU = 2.814 ms, elapsed = 2.81596 ms.
Intrinsic tran analysis time:    CPU = 460.293 ms, elapsed = 461.851 ms.
Total time required for tran analysis `tran': CPU = 466.041 ms, elapsed = 468.204 ms, util. = 99.5%.
Time accumulated: CPU = 5.08817 s, elapsed = 5.91712 s.
Peak resident memory used = 213 Mbytes.


Notice from spectre during transient analysis `tran', during Monte Carlo analysis `mc1'.
    34 warnings suppressed.

finalTimeOP: writing operating point information to rawfile.

Opening the PSF file ../psf/mc1_separate/008/finalTimeOP.info ...
modelParameter: writing model parameter values to rawfile.

Opening the PSF file ../psf/mc1_separate/008/modelParameter.info ...
element: writing instance parameter values to rawfile.

Opening the PSF file ../psf/mc1_separate/008/element.info ...
outputParameter: writing output parameter values to rawfile.

Opening the PSF file ../psf/mc1_separate/008/outputParameter.info ...
designParamVals: writing netlist parameters to rawfile.

Opening the PSFASCII file ../psf/mc1_separate/008/designParamVals.info ...
primitives: writing primitives to rawfile.

Opening the PSFASCII file ../psf/mc1_separate/008/primitives.info.primitives ...
subckts: writing subcircuits to rawfile.

Opening the PSFASCII file ../psf/mc1_separate/008/subckts.info.subckts ...
    mc1: iteration = 8           (7.07 %), step = 1            (1.01 %)
9   8.08% 

*****************************************************************************************
* 
* INFO: AMS_processOption = C35B4C3
* 
* INFO: Valid Modules  PIP VG5 HIRES
* 
*****************************************************************************************


Notice from spectre during Monte Carlo analysis `mc1'.
    V8: `period' has the unusually large value of 100 s.


***********************************************
Transient Analysis `tran': time = (0 s -> 50 s)
***********************************************

Opening the PSF file ../psf/mc1_separate/009/tran.tran.tran ...

Warning from spectre during check, during IC analysis, during transient analysis `tran', during Monte Carlo analysis `mc1'.
    WARNING (CMI-2943): Parameter checks have been ignored because the valid value for parameter 'trise' could not be found in 'C1'.
    WARNING (CMI-2943): Parameter checks have been ignored because the valid value for parameter 'trise' could not be found in 'I0.R2.CM'.
    WARNING (CMI-2943): Parameter checks have been ignored because the valid value for parameter 'trise' could not be found in 'I0.R2.CS1'.
    WARNING (CMI-2943): Parameter checks have been ignored because the valid value for parameter 'trise' could not be found in 'I0.R2.CS0'.
    WARNING (CMI-2943): Parameter checks have been ignored because the valid value for parameter 'trise' could not be found in 'I0.C3.C1'.
        Further occurrences of this warning will be suppressed.

Convergence achieved in 12 iterations.
DC simulation time: CPU = 2.454 ms, elapsed = 2.46286 ms.
Important parameter values:
    start = 0 s
    outputstart = 0 s
    stop = 50 s
    step = 50 ms
    maxstep = 500 ms
    ic = all
    useprevic = no
    skipdc = no
    reltol = 10e-06
    abstol(V) = 1 uV
    abstol(I) = 1 pA
    temp = -40 C
    tnom = 27 C
    tempeffects = all
    errpreset = conservative
    method = gear2only
    lteratio = 10
    relref = alllocal
    cmin = 0 F
    gmin = 1 pS
    rabsshort = 1 mOhm


Notice from spectre during transient analysis `tran', during Monte Carlo analysis `mc1'.
    Multithreading is disabled due to the size of the design being too small.


Output and IC/nodeset summary:
                 save   8       (current)
                 save   87      (voltage)

    tran: time = 1.308 s     (2.62 %), step = 86.81 ms     (174 m%)
    tran: time = 4.099 s      (8.2 %), step = 381.3 ms     (763 m%)
    tran: time = 6.436 s     (12.9 %), step = 500 ms          (1 %)
    tran: time = 8.936 s     (17.9 %), step = 500 ms          (1 %)
    tran: time = 11.44 s     (22.9 %), step = 500 ms          (1 %)
    tran: time = 13.94 s     (27.9 %), step = 500 ms          (1 %)
    tran: time = 16.44 s     (32.9 %), step = 500 ms          (1 %)
    tran: time = 18.94 s     (37.9 %), step = 500 ms          (1 %)
    tran: time = 21.44 s     (42.9 %), step = 500 ms          (1 %)
    tran: time = 23.94 s     (47.9 %), step = 500 ms          (1 %)
    tran: time = 26.44 s     (52.9 %), step = 500 ms          (1 %)
    tran: time = 28.94 s     (57.9 %), step = 500 ms          (1 %)
    tran: time = 31.44 s     (62.9 %), step = 500 ms          (1 %)
    tran: time = 33.94 s     (67.9 %), step = 500 ms          (1 %)
    tran: time = 36.44 s     (72.9 %), step = 500 ms          (1 %)
    tran: time = 38.94 s     (77.9 %), step = 500 ms          (1 %)
    tran: time = 41.44 s     (82.9 %), step = 500 ms          (1 %)
    tran: time = 43.94 s     (87.9 %), step = 500 ms          (1 %)
    tran: time = 46.44 s     (92.9 %), step = 500 ms          (1 %)
    tran: time = 48.94 s     (97.9 %), step = 500 ms          (1 %)
Number of accepted tran steps =             742

Maximum value achieved for any signal of each quantity: 
V: V(vout_filt) = 3.3 V
I: I(V8:p) = 6.284 uA

~~~~~~~~~~~~~~~~~~~~~~~~~~~~~~~~~
Post-Transient Simulation Summary
~~~~~~~~~~~~~~~~~~~~~~~~~~~~~~~~~
   -   To further speed up simulation, consider
          add ++aps on command line
   -   Non-default settings that could significantly slow down simulation
          errpreset = conservative, default moderate
          reltol = 10e-06, default 100e-06 (conservative)
~~~~~~~~~~~~~~~~~~~~~~~~~~~~~~~~~


During simulation, the CPU load for active processors is :
         0 (5.7 %)       1 (11.2 %)      2 (51.2 %)      3 (3.4 %)
         4 (83.3 %)      5 (9.8 %)       6 (10.0 %)      7 (9.4 %)
         8 (19.0 %)      9 (11.7 %)     10 (6.9 %)      11 (20.0 %)
        12 (22.8 %)     13 (17.1 %)     14 (11.8 %)     15 (80.1 %)
        16 (30.1 %)     17 (7.6 %)      18 (8.9 %)      19 (5.3 %)
        20 (100.0 %)    21 (33.2 %)     22 (47.3 %)     23 (6.4 %)
        24 (100.0 %)    25 (4.1 %)      26 (2.9 %)      27 (3.8 %)
        28 (52.8 %)     29 (3.8 %)      30 (18.4 %)     31 (73.7 %)
        32 (18.1 %)     33 (35.2 %)     34 (4.6 %)      35 (3.5 %)
        36 (55.9 %)     37 (4.7 %)      38 (24.6 %)     39 (35.0 %)
        40 (6.8 %)      41 (3.0 %)      42 (24.5 %)     43 (11.0 %)
        44 (15.5 %)     45 (42.4 %)     46 (29.9 %)     47 (18.2 %)
        Total: 1204.6%
Initial condition solution time: CPU = 2.506 ms, elapsed = 2.51603 ms.
Intrinsic tran analysis time:    CPU = 451.627 ms, elapsed = 453.36 ms.
Total time required for tran analysis `tran': CPU = 456.471 ms, elapsed = 458.862 ms, util. = 99.5%.
Time accumulated: CPU = 5.58735 s, elapsed = 6.43069 s.
Peak resident memory used = 213 Mbytes.


Notice from spectre during transient analysis `tran', during Monte Carlo analysis `mc1'.
    34 warnings suppressed.

finalTimeOP: writing operating point information to rawfile.

Opening the PSF file ../psf/mc1_separate/009/finalTimeOP.info ...
modelParameter: writing model parameter values to rawfile.

Opening the PSF file ../psf/mc1_separate/009/modelParameter.info ...
element: writing instance parameter values to rawfile.

Opening the PSF file ../psf/mc1_separate/009/element.info ...
outputParameter: writing output parameter values to rawfile.

Opening the PSF file ../psf/mc1_separate/009/outputParameter.info ...
designParamVals: writing netlist parameters to rawfile.

Opening the PSFASCII file ../psf/mc1_separate/009/designParamVals.info ...
primitives: writing primitives to rawfile.

Opening the PSFASCII file ../psf/mc1_separate/009/primitives.info.primitives ...
subckts: writing subcircuits to rawfile.

Opening the PSFASCII file ../psf/mc1_separate/009/subckts.info.subckts ...
    mc1: iteration = 9           (8.08 %), step = 1            (1.01 %)
10   9.09% 

*****************************************************************************************
* 
* INFO: AMS_processOption = C35B4C3
* 
* INFO: Valid Modules  PIP VG5 HIRES
* 
*****************************************************************************************


Notice from spectre during Monte Carlo analysis `mc1'.
    V8: `period' has the unusually large value of 100 s.


***********************************************
Transient Analysis `tran': time = (0 s -> 50 s)
***********************************************

Opening the PSF file ../psf/mc1_separate/010/tran.tran.tran ...

Warning from spectre during check, during IC analysis, during transient analysis `tran', during Monte Carlo analysis `mc1'.
    WARNING (CMI-2943): Parameter checks have been ignored because the valid value for parameter 'trise' could not be found in 'C1'.
    WARNING (CMI-2943): Parameter checks have been ignored because the valid value for parameter 'trise' could not be found in 'I0.R2.CM'.
    WARNING (CMI-2943): Parameter checks have been ignored because the valid value for parameter 'trise' could not be found in 'I0.R2.CS1'.
    WARNING (CMI-2943): Parameter checks have been ignored because the valid value for parameter 'trise' could not be found in 'I0.R2.CS0'.
    WARNING (CMI-2943): Parameter checks have been ignored because the valid value for parameter 'trise' could not be found in 'I0.C3.C1'.
        Further occurrences of this warning will be suppressed.

Convergence achieved in 12 iterations.
DC simulation time: CPU = 2.701 ms, elapsed = 2.71297 ms.
Important parameter values:
    start = 0 s
    outputstart = 0 s
    stop = 50 s
    step = 50 ms
    maxstep = 500 ms
    ic = all
    useprevic = no
    skipdc = no
    reltol = 10e-06
    abstol(V) = 1 uV
    abstol(I) = 1 pA
    temp = -40 C
    tnom = 27 C
    tempeffects = all
    errpreset = conservative
    method = gear2only
    lteratio = 10
    relref = alllocal
    cmin = 0 F
    gmin = 1 pS
    rabsshort = 1 mOhm


Notice from spectre during transient analysis `tran', during Monte Carlo analysis `mc1'.
    Multithreading is disabled due to the size of the design being too small.


Output and IC/nodeset summary:
                 save   8       (current)
                 save   87      (voltage)

    tran: time = 1.298 s      (2.6 %), step = 115.1 ms     (230 m%)
    tran: time = 3.988 s     (7.98 %), step = 395.5 ms     (791 m%)
    tran: time = 6.377 s     (12.8 %), step = 500 ms          (1 %)
    tran: time = 8.877 s     (17.8 %), step = 500 ms          (1 %)
    tran: time = 11.38 s     (22.8 %), step = 500 ms          (1 %)
    tran: time = 13.88 s     (27.8 %), step = 500 ms          (1 %)
    tran: time = 16.38 s     (32.8 %), step = 500 ms          (1 %)
    tran: time = 18.88 s     (37.8 %), step = 500 ms          (1 %)
    tran: time = 21.38 s     (42.8 %), step = 500 ms          (1 %)
    tran: time = 23.88 s     (47.8 %), step = 500 ms          (1 %)
    tran: time = 26.38 s     (52.8 %), step = 500 ms          (1 %)
    tran: time = 28.88 s     (57.8 %), step = 500 ms          (1 %)
    tran: time = 31.38 s     (62.8 %), step = 500 ms          (1 %)
[...]


***********************************************
Transient Analysis `tran': time = (0 s -> 50 s)
***********************************************

Opening the PSF file ../psf/mc1_separate/098/tran.tran.tran ...

Warning from spectre during check, during IC analysis, during transient analysis `tran', during Monte Carlo analysis `mc1'.
    WARNING (CMI-2943): Parameter checks have been ignored because the valid value for parameter 'trise' could not be found in 'C1'.
    WARNING (CMI-2943): Parameter checks have been ignored because the valid value for parameter 'trise' could not be found in 'I0.R2.CM'.
    WARNING (CMI-2943): Parameter checks have been ignored because the valid value for parameter 'trise' could not be found in 'I0.R2.CS1'.
    WARNING (CMI-2943): Parameter checks have been ignored because the valid value for parameter 'trise' could not be found in 'I0.R2.CS0'.
    WARNING (CMI-2943): Parameter checks have been ignored because the valid value for parameter 'trise' could not be found in 'I0.C3.C1'.
        Further occurrences of this warning will be suppressed.

Convergence achieved in 12 iterations.
DC simulation time: CPU = 2.53 ms, elapsed = 2.53201 ms.
Important parameter values:
    start = 0 s
    outputstart = 0 s
    stop = 50 s
    step = 50 ms
    maxstep = 500 ms
    ic = all
    useprevic = no
    skipdc = no
    reltol = 10e-06
    abstol(V) = 1 uV
    abstol(I) = 1 pA
    temp = -40 C
    tnom = 27 C
    tempeffects = all
    errpreset = conservative
    method = gear2only
    lteratio = 10
    relref = alllocal
    cmin = 0 F
    gmin = 1 pS
    rabsshort = 1 mOhm


Notice from spectre during transient analysis `tran', during Monte Carlo analysis `mc1'.
    Multithreading is disabled due to the size of the design being too small.


Output and IC/nodeset summary:
                 save   8       (current)
                 save   87      (voltage)

    tran: time = 1.285 s     (2.57 %), step = 104.2 ms     (208 m%)
    tran: time = 4.14 s      (8.28 %), step = 397.9 ms     (796 m%)
    tran: time = 6.526 s     (13.1 %), step = 500 ms          (1 %)
    tran: time = 9.026 s     (18.1 %), step = 500 ms          (1 %)
    tran: time = 11.53 s     (23.1 %), step = 500 ms          (1 %)
    tran: time = 14.03 s     (28.1 %), step = 500 ms          (1 %)
    tran: time = 16.53 s     (33.1 %), step = 500 ms          (1 %)
    tran: time = 19.03 s     (38.1 %), step = 500 ms          (1 %)
    tran: time = 21.53 s     (43.1 %), step = 500 ms          (1 %)
    tran: time = 24.03 s     (48.1 %), step = 500 ms          (1 %)
    tran: time = 26.53 s     (53.1 %), step = 500 ms          (1 %)
    tran: time = 29.03 s     (58.1 %), step = 500 ms          (1 %)
    tran: time = 31.53 s     (63.1 %), step = 500 ms          (1 %)
    tran: time = 34.03 s     (68.1 %), step = 500 ms          (1 %)
    tran: time = 36.53 s     (73.1 %), step = 500 ms          (1 %)
    tran: time = 39.03 s     (78.1 %), step = 500 ms          (1 %)
    tran: time = 41.53 s     (83.1 %), step = 500 ms          (1 %)
    tran: time = 44.03 s     (88.1 %), step = 500 ms          (1 %)
    tran: time = 46.53 s     (93.1 %), step = 500 ms          (1 %)
    tran: time = 49.03 s     (98.1 %), step = 500 ms          (1 %)
Number of accepted tran steps =             746

Maximum value achieved for any signal of each quantity: 
V: V(vout) = 3.3 V
I: I(V8:p) = 6.311 uA

~~~~~~~~~~~~~~~~~~~~~~~~~~~~~~~~~
Post-Transient Simulation Summary
~~~~~~~~~~~~~~~~~~~~~~~~~~~~~~~~~
   -   To further speed up simulation, consider
          add ++aps on command line
   -   Non-default settings that could significantly slow down simulation
          errpreset = conservative, default moderate
          reltol = 10e-06, default 100e-06 (conservative)
~~~~~~~~~~~~~~~~~~~~~~~~~~~~~~~~~


During simulation, the CPU load for active processors is :
         0 (45.4 %)      1 (23.0 %)      2 (27.9 %)      3 (15.8 %)
         4 (51.4 %)      5 (14.0 %)      6 (7.4 %)       7 (9.4 %)
         8 (18.4 %)      9 (5.5 %)      10 (10.8 %)     11 (14.4 %)
        12 (34.9 %)     13 (8.0 %)      14 (49.2 %)     15 (40.7 %)
        16 (17.7 %)     17 (26.7 %)     18 (25.6 %)     19 (44.0 %)
        20 (44.2 %)     21 (51.2 %)     22 (39.7 %)     23 (20.2 %)
        24 (83.8 %)     25 (32.5 %)     26 (26.2 %)     27 (8.6 %)
        28 (43.6 %)     29 (18.0 %)     30 (15.0 %)     31 (31.9 %)
        32 (24.0 %)     33 (22.9 %)     34 (13.3 %)     35 (15.8 %)
        36 (30.3 %)     37 (29.7 %)     38 (12.6 %)     39 (24.2 %)
        40 (9.8 %)      41 (7.0 %)      42 (34.3 %)     43 (23.7 %)
        44 (28.7 %)     45 (43.8 %)     46 (36.1 %)     47 (23.9 %)
        Total: 1285.1%
Initial condition solution time: CPU = 2.576 ms, elapsed = 2.57587 ms.
Intrinsic tran analysis time:    CPU = 459.764 ms, elapsed = 461.092 ms.
Total time required for tran analysis `tran': CPU = 465.123 ms, elapsed = 467.131 ms, util. = 99.6%.
Time accumulated: CPU = 50.2846 s, elapsed = 52.4134 s.
Peak resident memory used = 214 Mbytes.


Notice from spectre during transient analysis `tran', during Monte Carlo analysis `mc1'.
    34 warnings suppressed.

finalTimeOP: writing operating point information to rawfile.

Opening the PSF file ../psf/mc1_separate/098/finalTimeOP.info ...
modelParameter: writing model parameter values to rawfile.

Opening the PSF file ../psf/mc1_separate/098/modelParameter.info ...
element: writing instance parameter values to rawfile.

Opening the PSF file ../psf/mc1_separate/098/element.info ...
outputParameter: writing output parameter values to rawfile.

Opening the PSF file ../psf/mc1_separate/098/outputParameter.info ...
designParamVals: writing netlist parameters to rawfile.

Opening the PSFASCII file ../psf/mc1_separate/098/designParamVals.info ...
primitives: writing primitives to rawfile.

Opening the PSFASCII file ../psf/mc1_separate/098/primitives.info.primitives ...
subckts: writing subcircuits to rawfile.

Opening the PSFASCII file ../psf/mc1_separate/098/subckts.info.subckts ...
    mc1: iteration = 98            (98 %), step = 1            (1.01 %)
99  98.99% 

*****************************************************************************************
* 
* INFO: AMS_processOption = C35B4C3
* 
* INFO: Valid Modules  PIP VG5 HIRES
* 
*****************************************************************************************


Notice from spectre during Monte Carlo analysis `mc1'.
    V8: `period' has the unusually large value of 100 s.


***********************************************
Transient Analysis `tran': time = (0 s -> 50 s)
***********************************************

Opening the PSF file ../psf/mc1_separate/099/tran.tran.tran ...

Warning from spectre during check, during IC analysis, during transient analysis `tran', during Monte Carlo analysis `mc1'.
    WARNING (CMI-2943): Parameter checks have been ignored because the valid value for parameter 'trise' could not be found in 'C1'.
    WARNING (CMI-2943): Parameter checks have been ignored because the valid value for parameter 'trise' could not be found in 'I0.R2.CM'.
    WARNING (CMI-2943): Parameter checks have been ignored because the valid value for parameter 'trise' could not be found in 'I0.R2.CS1'.
    WARNING (CMI-2943): Parameter checks have been ignored because the valid value for parameter 'trise' could not be found in 'I0.R2.CS0'.
    WARNING (CMI-2943): Parameter checks have been ignored because the valid value for parameter 'trise' could not be found in 'I0.C3.C1'.
        Further occurrences of this warning will be suppressed.

Convergence achieved in 12 iterations.
DC simulation time: CPU = 2.565 ms, elapsed = 2.56705 ms.
Important parameter values:
    start = 0 s
    outputstart = 0 s
    stop = 50 s
    step = 50 ms
    maxstep = 500 ms
    ic = all
    useprevic = no
    skipdc = no
    reltol = 10e-06
    abstol(V) = 1 uV
    abstol(I) = 1 pA
    temp = -40 C
    tnom = 27 C
    tempeffects = all
    errpreset = conservative
    method = gear2only
    lteratio = 10
    relref = alllocal
    cmin = 0 F
    gmin = 1 pS
    rabsshort = 1 mOhm


Notice from spectre during transient analysis `tran', during Monte Carlo analysis `mc1'.
    Multithreading is disabled due to the size of the design being too small.


Output and IC/nodeset summary:
                 save   8       (current)
                 save   87      (voltage)

    tran: time = 1.3 s        (2.6 %), step = 111.2 ms     (222 m%)
    tran: time = 3.91 s      (7.82 %), step = 387 ms       (774 m%)
    tran: time = 6.274 s     (12.5 %), step = 500 ms          (1 %)
    tran: time = 8.774 s     (17.5 %), step = 500 ms          (1 %)
    tran: time = 11.27 s     (22.5 %), step = 500 ms          (1 %)
    tran: time = 13.77 s     (27.5 %), step = 500 ms          (1 %)
    tran: time = 16.27 s     (32.5 %), step = 500 ms          (1 %)
    tran: time = 18.77 s     (37.5 %), step = 500 ms          (1 %)
    tran: time = 21.27 s     (42.5 %), step = 500 ms          (1 %)
    tran: time = 23.77 s     (47.5 %), step = 500 ms          (1 %)
    tran: time = 26.27 s     (52.5 %), step = 500 ms          (1 %)
    tran: time = 28.77 s     (57.5 %), step = 500 ms          (1 %)
    tran: time = 31.27 s     (62.5 %), step = 500 ms          (1 %)
    tran: time = 33.77 s     (67.5 %), step = 500 ms          (1 %)
    tran: time = 36.27 s     (72.5 %), step = 500 ms          (1 %)
    tran: time = 38.77 s     (77.5 %), step = 500 ms          (1 %)
    tran: time = 41.27 s     (82.5 %), step = 500 ms          (1 %)
    tran: time = 43.77 s     (87.5 %), step = 500 ms          (1 %)
    tran: time = 46.27 s     (92.5 %), step = 500 ms          (1 %)
    tran: time = 48.77 s     (97.5 %), step = 500 ms          (1 %)
Number of accepted tran steps =             740

Maximum value achieved for any signal of each quantity: 
V: V(S<0>) = 3.3 V
I: I(V8:p) = 6.257 uA

~~~~~~~~~~~~~~~~~~~~~~~~~~~~~~~~~
Post-Transient Simulation Summary
~~~~~~~~~~~~~~~~~~~~~~~~~~~~~~~~~
   -   To further speed up simulation, consider
          add ++aps on command line
   -   Non-default settings that could significantly slow down simulation
          errpreset = conservative, default moderate
          reltol = 10e-06, default 100e-06 (conservative)
~~~~~~~~~~~~~~~~~~~~~~~~~~~~~~~~~


During simulation, the CPU load for active processors is :
         0 (45.0 %)      1 (23.8 %)      2 (27.9 %)      3 (16.7 %)
         4 (51.0 %)      5 (13.9 %)      6 (7.3 %)       7 (9.3 %)
         8 (18.2 %)      9 (5.5 %)      10 (10.8 %)     11 (14.3 %)
        12 (35.5 %)     13 (8.0 %)      14 (49.7 %)     15 (40.3 %)
        16 (17.6 %)     17 (26.5 %)     18 (25.4 %)     19 (43.7 %)
        20 (43.8 %)     21 (51.7 %)     22 (39.4 %)     23 (21.0 %)
        24 (83.0 %)     25 (33.1 %)     26 (26.0 %)     27 (8.5 %)
        28 (44.0 %)     29 (18.5 %)     30 (14.9 %)     31 (31.6 %)
        32 (23.8 %)     33 (22.7 %)     34 (13.2 %)     35 (15.8 %)
        36 (30.4 %)     37 (29.5 %)     38 (13.4 %)     39 (24.1 %)
        40 (9.7 %)      41 (7.0 %)      42 (35.0 %)     43 (23.5 %)
        44 (28.5 %)     45 (43.4 %)     46 (35.9 %)     47 (23.8 %)
        Total: 1285.5%
Initial condition solution time: CPU = 2.632 ms, elapsed = 2.63405 ms.
Intrinsic tran analysis time:    CPU = 457.046 ms, elapsed = 458.528 ms.
Total time required for tran analysis `tran': CPU = 462.385 ms, elapsed = 464.581 ms, util. = 99.5%.
Time accumulated: CPU = 50.7892 s, elapsed = 52.932 s.
Peak resident memory used = 214 Mbytes.


Notice from spectre during transient analysis `tran', during Monte Carlo analysis `mc1'.
    34 warnings suppressed.

finalTimeOP: writing operating point information to rawfile.

Opening the PSF file ../psf/mc1_separate/099/finalTimeOP.info ...
modelParameter: writing model parameter values to rawfile.

Opening the PSF file ../psf/mc1_separate/099/modelParameter.info ...
element: writing instance parameter values to rawfile.

Opening the PSF file ../psf/mc1_separate/099/element.info ...
outputParameter: writing output parameter values to rawfile.

Opening the PSF file ../psf/mc1_separate/099/outputParameter.info ...
designParamVals: writing netlist parameters to rawfile.

Opening the PSFASCII file ../psf/mc1_separate/099/designParamVals.info ...
primitives: writing primitives to rawfile.

Opening the PSFASCII file ../psf/mc1_separate/099/primitives.info.primitives ...
subckts: writing subcircuits to rawfile.

Opening the PSFASCII file ../psf/mc1_separate/099/subckts.info.subckts ...
    mc1: iteration = 99            (99 %), step = 1            (1.01 %)
100 100.00% 

*****************************************************************************************
* 
* INFO: AMS_processOption = C35B4C3
* 
* INFO: Valid Modules  PIP VG5 HIRES
* 
*****************************************************************************************


Notice from spectre during Monte Carlo analysis `mc1'.
    V8: `period' has the unusually large value of 100 s.


***********************************************
Transient Analysis `tran': time = (0 s -> 50 s)
***********************************************

Opening the PSF file ../psf/mc1_separate/100/tran.tran.tran ...

Warning from spectre during check, during IC analysis, during transient analysis `tran', during Monte Carlo analysis `mc1'.
    WARNING (CMI-2943): Parameter checks have been ignored because the valid value for parameter 'trise' could not be found in 'C1'.
    WARNING (CMI-2943): Parameter checks have been ignored because the valid value for parameter 'trise' could not be found in 'I0.R2.CM'.
    WARNING (CMI-2943): Parameter checks have been ignored because the valid value for parameter 'trise' could not be found in 'I0.R2.CS1'.
    WARNING (CMI-2943): Parameter checks have been ignored because the valid value for parameter 'trise' could not be found in 'I0.R2.CS0'.
    WARNING (CMI-2943): Parameter checks have been ignored because the valid value for parameter 'trise' could not be found in 'I0.C3.C1'.
        Further occurrences of this warning will be suppressed.

Convergence achieved in 12 iterations.
DC simulation time: CPU = 2.681 ms, elapsed = 2.68102 ms.
Important parameter values:
    start = 0 s
    outputstart = 0 s
    stop = 50 s
    step = 50 ms
    maxstep = 500 ms
    ic = all
    useprevic = no
    skipdc = no
    reltol = 10e-06
    abstol(V) = 1 uV
    abstol(I) = 1 pA
    temp = -40 C
    tnom = 27 C
    tempeffects = all
    errpreset = conservative
    method = gear2only
    lteratio = 10
    relref = alllocal
    cmin = 0 F
    gmin = 1 pS
    rabsshort = 1 mOhm


Notice from spectre during transient analysis `tran', during Monte Carlo analysis `mc1'.
    Multithreading is disabled due to the size of the design being too small.


Output and IC/nodeset summary:
                 save   8       (current)
                 save   87      (voltage)

    tran: time = 1.354 s     (2.71 %), step = 115.5 ms     (231 m%)
    tran: time = 4.061 s     (8.12 %), step = 398.6 ms     (797 m%)
    tran: time = 6.456 s     (12.9 %), step = 500 ms          (1 %)
    tran: time = 8.956 s     (17.9 %), step = 500 ms          (1 %)
    tran: time = 11.46 s     (22.9 %), step = 500 ms          (1 %)
    tran: time = 13.96 s     (27.9 %), step = 500 ms          (1 %)
    tran: time = 16.46 s     (32.9 %), step = 500 ms          (1 %)
    tran: time = 18.96 s     (37.9 %), step = 500 ms          (1 %)
    tran: time = 21.46 s     (42.9 %), step = 500 ms          (1 %)
    tran: time = 23.96 s     (47.9 %), step = 500 ms          (1 %)
    tran: time = 26.46 s     (52.9 %), step = 500 ms          (1 %)
    tran: time = 28.96 s     (57.9 %), step = 500 ms          (1 %)
    tran: time = 31.46 s     (62.9 %), step = 500 ms          (1 %)
    tran: time = 33.96 s     (67.9 %), step = 500 ms          (1 %)
    tran: time = 36.46 s     (72.9 %), step = 500 ms          (1 %)
    tran: time = 38.96 s     (77.9 %), step = 500 ms          (1 %)
    tran: time = 41.46 s     (82.9 %), step = 500 ms          (1 %)
    tran: time = 43.96 s     (87.9 %), step = 500 ms          (1 %)
    tran: time = 46.46 s     (92.9 %), step = 500 ms          (1 %)
    tran: time = 48.96 s     (97.9 %), step = 500 ms          (1 %)
Number of accepted tran steps =             740

Maximum value achieved for any signal of each quantity: 
V: V(vout) = 3.3 V
I: I(V8:p) = 6.661 uA

~~~~~~~~~~~~~~~~~~~~~~~~~~~~~~~~~
Post-Transient Simulation Summary
~~~~~~~~~~~~~~~~~~~~~~~~~~~~~~~~~
   -   To further speed up simulation, consider
          add ++aps on command line
   -   Non-default settings that could significantly slow down simulation
          errpreset = conservative, default moderate
          reltol = 10e-06, default 100e-06 (conservative)
~~~~~~~~~~~~~~~~~~~~~~~~~~~~~~~~~


During simulation, the CPU load for active processors is :
         0 (44.6 %)      1 (24.6 %)      2 (27.7 %)      3 (17.4 %)
         4 (50.5 %)      5 (13.8 %)      6 (7.3 %)       7 (9.2 %)
         8 (18.1 %)      9 (5.5 %)      10 (10.7 %)     11 (14.2 %)
        12 (36.2 %)     13 (7.9 %)      14 (50.2 %)     15 (39.9 %)
        16 (17.6 %)     17 (26.3 %)     18 (25.2 %)     19 (43.4 %)
        20 (43.4 %)     21 (52.1 %)     22 (39.1 %)     23 (20.9 %)
        24 (82.3 %)     25 (33.8 %)     26 (25.7 %)     27 (8.5 %)
        28 (43.6 %)     29 (19.3 %)     30 (14.7 %)     31 (31.4 %)
        32 (23.6 %)     33 (22.5 %)     34 (13.1 %)     35 (15.7 %)
        36 (30.1 %)     37 (29.3 %)     38 (14.2 %)     39 (23.9 %)
        40 (9.6 %)      41 (7.0 %)      42 (35.6 %)     43 (23.4 %)
        44 (28.2 %)     45 (43.0 %)     46 (35.5 %)     47 (23.8 %)
        Total: 1283.6%
Initial condition solution time: CPU = 2.723 ms, elapsed = 2.72608 ms.
Intrinsic tran analysis time:    CPU = 454.267 ms, elapsed = 456.284 ms.
Total time required for tran analysis `tran': CPU = 460.031 ms, elapsed = 462.666 ms, util. = 99.4%.
Time accumulated: CPU = 51.2925 s, elapsed = 53.4508 s.
Peak resident memory used = 214 Mbytes.


Notice from spectre during transient analysis `tran', during Monte Carlo analysis `mc1'.
    34 warnings suppressed.

finalTimeOP: writing operating point information to rawfile.

Opening the PSF file ../psf/mc1_separate/100/finalTimeOP.info ...
modelParameter: writing model parameter values to rawfile.

Opening the PSF file ../psf/mc1_separate/100/modelParameter.info ...
element: writing instance parameter values to rawfile.

Opening the PSF file ../psf/mc1_separate/100/element.info ...
outputParameter: writing output parameter values to rawfile.

Opening the PSF file ../psf/mc1_separate/100/outputParameter.info ...
designParamVals: writing netlist parameters to rawfile.

Opening the PSFASCII file ../psf/mc1_separate/100/designParamVals.info ...
primitives: writing primitives to rawfile.

Opening the PSFASCII file ../psf/mc1_separate/100/primitives.info.primitives ...
subckts: writing subcircuits to rawfile.

Opening the PSFASCII file ../psf/mc1_separate/100/subckts.info.subckts ...
    mc1: iteration = 100          (100 %), step = 1            (1.01 %)
Total time required for montecarlo analysis `mc1': CPU = 50.8561 s, elapsed = 52.32 s, util. = 97.2%.
Time accumulated: CPU = 51.3214 s, elapsed = 53.4932 s.
Peak resident memory used = 214 Mbytes.

Licensing Information:
Lic Summary:
[16:46:58.401258] Cdslmd servers:3000@lic08.ug.kth.se:29000@lic06.ug.kth.se
[16:46:58.401305] Feature usage summary:
[16:46:58.401307] Virtuoso_Multi_mode_Simulation


Aggregate audit (4:46:58 PM, Wed Apr 15, 2026):
Time used: CPU = 51.3 s, elapsed = 53.5 s, util. = 95.9%.
Time spent in licensing: elapsed = 160 ms.
Peak memory used = 215 Mbytes.
Simulation started at: 4:46:04 PM, Wed Apr 15, 2026, ended at: 4:46:58 PM, Wed Apr 15, 2026, with elapsed time (wall clock): 53.5 s.
spectre completes with 0 errors, 522 warnings, and 310 notices.
