
Spectre (R) Circuit Simulator
Version 24.1.0.288.isr5 64bit -- 3 Apr 2025
Copyright (C) 1989-2025 Cadence Design Systems, Inc. All rights reserved worldwide. Cadence and Spectre are registered trademarks of Cadence Design Systems, Inc. All others are the property of their respective holders.

Includes RSA BSAFE(R) Cryptographic or Security Protocol Software from RSA Security, Inc.

User: davidevi   Host: il2244vt26_davidevi   HostID: 11AC2C00   PID: 1108472
Memory  available: 3.0420 TB  physical: 3.2467 TB
Linux   : Rocky Linux release 8.10 (Green Obsidian)
CPU Type: Intel(R) Xeon(R) CPU E7-8857 v2 @ 3.00GHz
        Socket: Processors [Frequency]
        0:       0 [2700.0],  1 [2999.9],  2 [1200.0],  3 [1200.0],  4 [1200.0]
                 5 [3600.0],  6 [2999.9],  7 [3200.0],  8 [3600.0],  9 [2999.9]
                10 [1200.0], 11 [2400.0]
        1:      12 [2700.0], 13 [3600.0], 14 [1200.0], 15 [2500.0], 16 [2965.7]
                17 [1200.0], 18 [2999.9], 19 [2999.9], 20 [1200.0], 21 [2600.0]
                22 [2999.9], 23 [3500.0]
        2:      24 [2999.9], 25 [2400.0], 26 [1200.0], 27 [3500.0], 28 [1400.0]
                29 [2999.9], 30 [1200.0], 31 [2500.0], 32 [2999.9], 33 [2999.9]
                34 [3600.0], 35 [1200.0]
        3:      36 [3600.0], 37 [1200.0], 38 [3500.0], 39 [3600.0], 40 [2999.9]
                41 [2999.9], 42 [3000.0], 43 [2800.0], 44 [3600.0], 45 [3600.0]
                46 [3600.0], 47 [3200.0]
        
System load averages (1min, 5min, 15min) : 17.9 %, 16.9 %, 17.7 %
HPC is enabled


Simulating `input.scs' on il2244vt26_davidevi at 10:45:58 AM, Thur Apr 16, 2026 (process id: 1108472).
Current working directory: /home/davidevi/Desktop/myproject/Sim/VGA/VGA_1_tb/adexl/results/data/MonteCarlo.4/27/Linerity_MC/groupRunDataDir/netlist
Command line:
    /opt/tools/cadence/installs/SPECTRE241/tools/bin/spectre -64  \
        input.scs +escchars +log ../psf/spectre.out -format psfbin  \
        +rtsf -raw ../psf +aps +mt +lqtimeout 900 -maxw 5 -maxn 5  \
        +param /opt/pdk/ams/410/spectre/ams_range.lmts -env ade  \
        -ahdllibdir  \
        /home/davidevi/Desktop/myproject/Sim/VGA/VGA_1_tb/adexl/results/data/MonteCarlo.4/sharedData/Job524/ahdl/input.ahdlSimDB  \
        +logstatus  \
        +adespetkn=0001089D13A302B663E41FB550AF0DF415A679A322D5069144BF588C12F604E07EF416DC01A319B562BB63D306D8409145A373F664D843B757CC6EC912ED4F926DF079D15D9175FF34986BDD0AF002BA50FD7FD707E002A700AC1C821FF641EB0EAF79D118F874D3349879D118F874D334981031A51DC9365D7800003670

Simulation Id: 4BKDiscT7d1TNpYh
Licensing Information:
[10:45:59.121794] Configured Lic search path (24.01-s002): 3000@lic08.ug.kth.se:29000@lic06.ug.kth.se

Licensing Information:
[10:45:59.170681] Periodic Lic check successful

Loading /opt/tools/cadence/installs/SPECTRE241/tools.lnx86/cmi/lib/64bit/5.0/libinfineon_sh.so ...
Loading /opt/tools/cadence/installs/SPECTRE241/tools.lnx86/cmi/lib/64bit/5.0/libphilips_I_sh.so ...
Loading /opt/tools/cadence/installs/SPECTRE241/tools.lnx86/cmi/lib/64bit/5.0/libphilips_sh.so ...
Loading /opt/tools/cadence/installs/SPECTRE241/tools.lnx86/cmi/lib/64bit/5.0/libsparam_sh.so ...
Loading /opt/tools/cadence/installs/SPECTRE241/tools.lnx86/cmi/lib/64bit/5.0/libstmodels_sh.so ...

Warning from spectre.
    WARNING (SPECTRE-691): This CPU processor does not support x86 advanced vector extensions instructions. This may affect math operations and slow down the simulation.

Reading file:  /home/davidevi/Desktop/myproject/Sim/VGA/VGA_1_tb/adexl/results/data/MonteCarlo.4/27/Linerity_MC/groupRunDataDir/netlist/input.scs
Reading file:  /opt/pdk/ams/410/spectre/ams_range.lmts

Warning from spectre during read of parameter soft limits file `/opt/pdk/ams/410/spectre/ams_range.lmts', during circuit read-in.
    WARNING (SPECTRE-8360): line 1511: `ac' is an undefined primitive device.
    WARNING (SPECTRE-8360): line 1512: `ac' is an undefined primitive device.
    WARNING (SPECTRE-8360): line 1513: `ac' is an undefined primitive device.
    WARNING (SPECTRE-8360): line 1514: `ac' is an undefined primitive device.
    WARNING (SPECTRE-8360): line 1515: `ac' is an undefined primitive device.
        Further occurrences of this warning will be suppressed.

Reading file:  /opt/tools/cadence/installs/SPECTRE241/tools.lnx86/spectre/etc/configs/spectre.cfg
Reading file:  /opt/pdk/ams/410/spectre/c35/soac/soac.scs
Reading file:  /opt/pdk/ams/410/spectre/c35/soac/processOption.scs
Reading file:  /opt/pdk/ams/410/spectre/c35/soac/process.scs
Reading file:  /opt/pdk/ams/410/spectre/c35/soac/soac.va

Warning from spectre during AHDL read-in.
    WARNING (VACOMP-2435): The environment variable CDS_AHDLCMI_ENABLE is no longer supported. Therefore, the simulator will use the default compiled C code flow.

Reading link:  /opt/tools/cadence/installs/SPECTRE241/tools.lnx86/spectre/etc/ahdl/constants.h
Reading file:  /opt/tools/cadence/installs/SPECTRE241/tools.lnx86/spectre/etc/ahdl/constants.vams
Reading link:  /opt/tools/cadence/installs/SPECTRE241/tools.lnx86/spectre/etc/ahdl/discipline.h
Reading file:  /opt/tools/cadence/installs/SPECTRE241/tools.lnx86/spectre/etc/ahdl/disciplines.vams
Reading file:  /opt/pdk/ams/410/spectre/c35/processOption/C35B4C3.scs
Reading file:  /opt/pdk/ams/410/spectre/c35/soac/cmos53.scs
Reading file:  /opt/pdk/ams/410/spectre/c35/soac/res.scs
Reading file:  /opt/pdk/ams/410/spectre/c35/soac/cap.scs
Reading file:  /opt/pdk/ams/410/spectre/c35/soac/bip.scs
Reading file:  /opt/pdk/ams/410/spectre/c35/soac/ind.scs
Reading file:  /opt/pdk/ams/410/spectre/c35/soac/esddiode.scs
Time for NDB Parsing: CPU = 193.747 ms, elapsed = 450.255 ms.
Time accumulated: CPU = 393.133 ms, elapsed = 450.258 ms.
Peak resident memory used = 175 Mbytes.

Existing shared object for module modn_ahdl is up to date.
Installed compiled interface for modn_ahdl.
Existing shared object for module modp_ahdl is up to date.
Installed compiled interface for modp_ahdl.
Existing shared object for module cpoly_ahdl is up to date.
Installed compiled interface for cpoly_ahdl.
Existing shared object for module rpolyh_ahdl is up to date.
Installed compiled interface for rpolyh_ahdl.
Existing shared object for module bsource_fcab9d is up to date.
Installed compiled interface for bsource_fcab9d.
Time for Elaboration: CPU = 59.531 ms, elapsed = 61.487 ms.
Time accumulated: CPU = 452.788 ms, elapsed = 511.868 ms.
Peak resident memory used = 188 Mbytes.


Notice from spectre during hierarchy flattening.
    The value 'psf' specified for the 'checklimitdest' option will no longer be supported in future releases. Use 'spectre -h' to see other recommended values for the 'checklimitdest' option.


*****************************************************************************************
* 
* INFO: AMS_processOption = C35B4C3
* 
* INFO: Valid Modules  PIP VG5 HIRES
* 
*****************************************************************************************


Time for EDB Visiting: CPU = 8.33 ms, elapsed = 8.32915 ms.
Time accumulated: CPU = 461.247 ms, elapsed = 520.325 ms.
Peak resident memory used = 191 Mbytes.

Loading /opt/tools/cadence/installs/SPECTRE241/tools.lnx86/mdl/lib/64bit/libSpectreEH_sh.so ...

Warning from spectre during initial setup.
    WARNING (SPECTRE-16460): SOAC_cvarm_vspsub:Specified subcircuit master `cvarm' was not found.
    WARNING (SPECTRE-16462): SOAC_cvarm_vspsub:Error in specification of subcircuit master. Assert is ignored.
    WARNING (SPECTRE-16460): SOAC_cvarm_vbs:Specified subcircuit master `cvarm' was not found.
    WARNING (SPECTRE-16462): SOAC_cvarm_vbs:Error in specification of subcircuit master. Assert is ignored.
    WARNING (SPECTRE-16460): SOAC_cvarm_vgb:Specified subcircuit master `cvarm' was not found.
    WARNING (SPECTRE-16462): SOAC_cvarm_vgb:Error in specification of subcircuit master. Assert is ignored.
    WARNING (SPECTRE-16460): SOAC_cvart_vspsub:Specified subcircuit master `cvart' was not found.
    WARNING (SPECTRE-16462): SOAC_cvart_vspsub:Error in specification of subcircuit master. Assert is ignored.
    WARNING (SPECTRE-16460): SOAC_cvart_vbs:Specified subcircuit master `cvart' was not found.
        Further occurrences of this warning will be suppressed.
    WARNING (SPECTRE-16462): SOAC_cvart_vbs:Error in specification of subcircuit master. Assert is ignored.
        Further occurrences of this warning will be suppressed.
Notice from spectre during topology check.
    Only one connection to the following 52 nodes:
        I0.MN6.psub!
        I0.MN5.psub!
        I0.MN4.psub!
        I0.MN3.psub!
        I0.MN2.psub!
        Further occurrences of this notice will be suppressed.
Notice from spectre during initial setup.
    Multithreading is disabled due to the size of the design being too small.


Netlist title:
        // Point Netlist Generated on: Apr 16 10:45:58 2026


Global user options:
         psfversion = 1.4.0
            vabstol = 1e-06
            iabstol = 1e-12
               temp = 27
           homotopy = 5
              limit = delta
         compatible = spice2
               gmin = 1e-12
             rforce = 1
           maxnotes = 5
           maxwarns = 5
             digits = 5
               cols = 80
             pivrel = 0.001
           sensfile = ../psf/sens.output
     checklimitdest = psf
     enable_pre_ver = yes
      ignorezerovar = yes
               save = allpub
             reltol = 0.0001
               tnom = 27
             scalem = 1
              scale = 1

Scoped user options:

Circuit inventory:
              nodes 84
            bsim3v3 33    
     bsource_fcab9d 2     
          capacitor 38    
         cpoly_ahdl 17    
            isource 1     
          modn_ahdl 19    
          modp_ahdl 14    
           resistor 1     
        rpolyh_ahdl 2     
            vsource 8     

Analysis and control statement inventory:
                 dc 1     
               info 8     
         montecarlo 1     
               tran 1     

Output statements:
             .probe 0     
           .measure 0     
               save 0     

Design checks inventory:
          paramtest 53    
             assert 175   


Notice from spectre during initial setup.
    APS enabled.
    1 notice suppressed.
    72 warnings suppressed.

Time for parsing: CPU = 17.614 ms, elapsed = 614.738 ms.
Time accumulated: CPU = 478.973 ms, elapsed = 1.13518 s.
Peak resident memory used = 197 Mbytes.

~~~~~~~~~~~~~~~~~~~~~~
Pre-Simulation Summary
~~~~~~~~~~~~~~~~~~~~~~
   -   (APS) Multi-threading. The recommended number of threads is 1, consider adding +mt=1 on command line.
~~~~~~~~~~~~~~~~~~~~~~

**************************************************
Monte Carlo Analysis `mc1': iteration = (27 -> 39)
**************************************************
Important parameter values:
    seed = 12345
    sampling = lds
    variations = all
    firstrun = 27
    numruns = 13
    nullmfactorcorrelation = no
    donominal = no
    method = standard
Opening iteration number and data-directory mapping file:  /home/davidevi/Desktop/myproject/Sim/VGA/VGA_1_tb/adexl/results/data/MonteCarlo.4/27/Linerity_MC/groupRunDataDir/netlist/../psf/mc1.mapping

Statistical parameters:
    Defined process parameters: 629
    Defined mismatch parameters (subckt based): 86
    Non-referenced mismatch parameters: 80
    Number of random variables: 714
    Gaussian truncation for process parameters: 4.00 sigma
    Gaussian truncation for mismatch parameters: 4.00 sigma


**** Skipping runs 1 to 26 for `mc1'


Opening the PSF file ../psf/mc1_dcOp.montecarlo ...

Opening the PSF file ../psf/mc1_dcOpInfo.montecarlo ...

Opening the PSF file ../psf/mc1_tran.montecarlo ...

Opening the PSF file ../psf/mc1_finalTimeOP.montecarlo ...

Opening the PSF file ../psf/mc1_modelParameter.montecarlo ...

Opening the PSF file ../psf/mc1_element.montecarlo ...

Opening the PSF file ../psf/mc1_outputParameter.montecarlo ...

Opening the PSF file ../psf/mc1_designParamVals.montecarlo ...

Opening the PSF file ../psf/mc1_primitives.montecarlo ...

Opening the PSF file ../psf/mc1_subckts.montecarlo ...

**** Performing monte carlo loop for `mc1'

27   0.00% 

*****************************************************************************************
* 
* INFO: AMS_processOption = C35B4C3
* 
* INFO: Valid Modules  PIP VG5 HIRES
* 
*****************************************************************************************


******************
DC Analysis `dcOp'
******************

Notice from spectre at iteration = 27 during DC analysis `dcOp', during Monte Carlo analysis `mc1'.
    No checklimit analysis defined for asserts. A default checklimit analysis 'SpectreChecklimitAnal' has been created with all asserts enabled.


Opening the PSF file ../psf/mc1_separate/027/dcOp.dc ...
Important parameter values:
    reltol = 100e-06
    abstol(V) = 1 uV
    abstol(I) = 1 pA
    temp = 27 C
    tnom = 27 C
    tempeffects = all
    gmindc = 1 pS
    rabsshort = 1 mOhm

Notice from spectre at iteration = 27 during DC analysis `dcOp', during Monte Carlo analysis `mc1'.
    Bad pivoting is found during DC analysis. Option dc_pivot_check=yes is recommended for possible improvement of convergence.


Maximum value achieved for any signal of each quantity: 
V: V(net2) = 3.3 V
I: I(V0:p) = 6.516 uA
Maximum value of each quantity, excluding Verilog-A modules or dangling current sources:
V: V(vout_filt) = 1.601 V
I: I(V0:p) = 6.516 uA

Warning from spectre at iteration = 27 during check, during DC analysis `dcOp', during Monte Carlo analysis `mc1'.
    WARNING (CMI-2943): Parameter checks have been ignored because the valid value for parameter 'trise' could not be found in 'C1'.
    WARNING (CMI-2943): Parameter checks have been ignored because the valid value for parameter 'trise' could not be found in 'I0.R2.CM'.
    WARNING (CMI-2943): Parameter checks have been ignored because the valid value for parameter 'trise' could not be found in 'I0.R2.CS1'.
    WARNING (CMI-2943): Parameter checks have been ignored because the valid value for parameter 'trise' could not be found in 'I0.R2.CS0'.
    WARNING (CMI-2943): Parameter checks have been ignored because the valid value for parameter 'trise' could not be found in 'I0.C8<3>.C1'.
        Further occurrences of this warning will be suppressed.

Convergence achieved in 17 iterations.
DC simulation time: CPU = 86.989 ms, elapsed = 90.7481 ms.
Total time required for dc analysis `dcOp': CPU = 87.683 ms, elapsed = 91.439 ms, util. = 95.9%.
Time accumulated: CPU = 647.166 ms, elapsed = 1.31415 s.
Peak resident memory used = 209 Mbytes.


Notice from spectre at iteration = 27 during Monte Carlo analysis `mc1'.
    34 warnings suppressed.

dcOpInfo: writing operating point information to rawfile.

Opening the PSF file ../psf/mc1_separate/027/dcOpInfo.info ...

************************************************
Transient Analysis `tran': time = (0 s -> 40 ms)
************************************************

Opening the PSF file ../psf/mc1_separate/027/tran.tran.tran ...

Notice from spectre at iteration = 27 during IC analysis, during transient analysis `tran', during Monte Carlo analysis `mc1'.
    Bad pivoting is found during DC analysis. Option dc_pivot_check=yes is recommended for possible improvement of convergence.
Warning from spectre at iteration = 27 during check, during IC analysis, during transient analysis `tran', during Monte Carlo analysis `mc1'.
    WARNING (CMI-2943): Parameter checks have been ignored because the valid value for parameter 'trise' could not be found in 'C1'.
    WARNING (CMI-2943): Parameter checks have been ignored because the valid value for parameter 'trise' could not be found in 'I0.R2.CM'.
    WARNING (CMI-2943): Parameter checks have been ignored because the valid value for parameter 'trise' could not be found in 'I0.R2.CS1'.
    WARNING (CMI-2943): Parameter checks have been ignored because the valid value for parameter 'trise' could not be found in 'I0.R2.CS0'.
    WARNING (CMI-2943): Parameter checks have been ignored because the valid value for parameter 'trise' could not be found in 'I0.C8<3>.C1'.
        Further occurrences of this warning will be suppressed.

Convergence achieved in 17 iterations.
DC simulation time: CPU = 2.908 ms, elapsed = 2.92397 ms.
Important parameter values:
    start = 0 s
    outputstart = 0 s
    stop = 40 ms
    step = 40 us
    maxstep = 400 us
    ic = all
    useprevic = no
    skipdc = no
    reltol = 10e-06
    abstol(V) = 1 uV
    abstol(I) = 1 pA
    temp = 27 C
    tnom = 27 C
    tempeffects = all
    errpreset = conservative
    method = gear2only
    lteratio = 10
    relref = alllocal
    cmin = 0 F
    gmin = 1 pS
    rabsshort = 1 mOhm


Notice from spectre at iteration = 27 during transient analysis `tran', during Monte Carlo analysis `mc1'.
    Multithreading is disabled due to the size of the design being too small.


Output and IC/nodeset summary:
                 save   8       (current)
                 save   83      (voltage)

    tran: time = 1.023 ms    (2.56 %), step = 48.25 us     (121 m%)
    tran: time = 3.037 ms    (7.59 %), step = 47.23 us     (118 m%)
    tran: time = 5.005 ms    (12.5 %), step = 50 us        (125 m%)
    tran: time = 7.018 ms    (17.5 %), step = 48.68 us     (122 m%)
    tran: time = 9.032 ms    (22.6 %), step = 47.57 us     (119 m%)
    tran: time = 11.05 ms    (27.6 %), step = 46.72 us     (117 m%)
    tran: time = 13.01 ms    (32.5 %), step = 49.15 us     (123 m%)
    tran: time = 15.03 ms    (37.6 %), step = 47.96 us     (120 m%)
    tran: time = 17.04 ms    (42.6 %), step = 47.01 us     (118 m%)
    tran: time = 19.01 ms    (47.5 %), step = 49.65 us     (124 m%)
    tran: time = 21.02 ms    (52.6 %), step = 48.38 us     (121 m%)
    tran: time = 23.04 ms    (57.6 %), step = 47.34 us     (118 m%)
    tran: time = 25 ms       (62.5 %), step = 50 us        (125 m%)
    tran: time = 27.02 ms    (67.5 %), step = 48.82 us     (122 m%)
    tran: time = 29.03 ms    (72.6 %), step = 47.69 us     (119 m%)
    tran: time = 31.04 ms    (77.6 %), step = 46.81 us     (117 m%)
    tran: time = 33.01 ms    (82.5 %), step = 49.29 us     (123 m%)
    tran: time = 35.03 ms    (87.6 %), step = 48.08 us     (120 m%)
    tran: time = 37.04 ms    (92.6 %), step = 47.11 us     (118 m%)
    tran: time = 39.01 ms    (97.5 %), step = 49.81 us     (125 m%)
Number of accepted tran steps =             851

Maximum value achieved for any signal of each quantity: 
V: V(net2) = 3.3 V
I: I(V0:p) = 6.516 uA
Maximum value of each quantity, excluding Verilog-A modules or dangling current sources:
V: V(vout_filt) = 1.615 V
I: I(V0:p) = 6.516 uA

~~~~~~~~~~~~~~~~~~~~~~~~~~~~~~~~~
Post-Transient Simulation Summary
~~~~~~~~~~~~~~~~~~~~~~~~~~~~~~~~~
   -   To further speed up simulation, consider
          add ++aps on command line
   -   Non-default settings that could significantly slow down simulation
          errpreset = conservative, default moderate
          reltol = 10e-06, default 100e-06 (conservative)
~~~~~~~~~~~~~~~~~~~~~~~~~~~~~~~~~


During simulation, the CPU load for active processors is :
         0 (17.4 %)      1 (32.6 %)      2 (3.5 %)       3 (39.4 %)
         4 (3.5 %)       5 (4.0 %)       6 (99.4 %)      7 (6.3 %)
         8 (2.9 %)       9 (6.3 %)      10 (5.2 %)      11 (4.6 %)
        12 (16.4 %)     13 (2.3 %)      14 (11.4 %)     15 (2.3 %)
        16 (31.4 %)     17 (8.6 %)      18 (43.7 %)     19 (100.0 %)
        20 (1.2 %)      21 (6.3 %)      22 (9.8 %)      23 (1.7 %)
        24 (100.0 %)    25 (4.0 %)      26 (13.6 %)     27 (2.3 %)
        28 (20.6 %)     29 (100.0 %)    30 (7.4 %)      31 (4.7 %)
        32 (4.6 %)      33 (26.6 %)     34 (53.7 %)     35 (8.0 %)
        36 (4.0 %)      37 (4.0 %)      38 (63.5 %)     39 (2.3 %)
        40 (100.0 %)    41 (4.1 %)      42 (29.1 %)     43 (4.6 %)
        44 (4.6 %)      45 (4.0 %)      46 (6.9 %)      47 (6.3 %)
        Total: 1039.1%
Initial condition solution time: CPU = 2.95 ms, elapsed = 2.96617 ms.
Intrinsic tran analysis time:    CPU = 504.851 ms, elapsed = 506.299 ms.
Total time required for tran analysis `tran': CPU = 510.176 ms, elapsed = 512.325 ms, util. = 99.6%.
Time accumulated: CPU = 1.16556 s, elapsed = 1.83854 s.
Peak resident memory used = 213 Mbytes.


Notice from spectre during transient analysis `tran', during Monte Carlo analysis `mc1'.
    34 warnings suppressed.

finalTimeOP: writing operating point information to rawfile.

Opening the PSF file ../psf/mc1_separate/027/finalTimeOP.info ...
modelParameter: writing model parameter values to rawfile.

Opening the PSF file ../psf/mc1_separate/027/modelParameter.info ...
element: writing instance parameter values to rawfile.

Opening the PSF file ../psf/mc1_separate/027/element.info ...
outputParameter: writing output parameter values to rawfile.

Opening the PSF file ../psf/mc1_separate/027/outputParameter.info ...
designParamVals: writing netlist parameters to rawfile.

Opening the PSFASCII file ../psf/mc1_separate/027/designParamVals.info ...
primitives: writing primitives to rawfile.

Opening the PSFASCII file ../psf/mc1_separate/027/primitives.info.primitives ...
subckts: writing subcircuits to rawfile.

Opening the PSFASCII file ../psf/mc1_separate/027/subckts.info.subckts ...
28   8.33% 

*****************************************************************************************
* 
* INFO: AMS_processOption = C35B4C3
* 
* INFO: Valid Modules  PIP VG5 HIRES
* 
*****************************************************************************************


******************
DC Analysis `dcOp'
******************

Opening the PSF file ../psf/mc1_separate/028/dcOp.dc ...
Important parameter values:
    reltol = 100e-06
    abstol(V) = 1 uV
    abstol(I) = 1 pA
    temp = 27 C
    tnom = 27 C
    tempeffects = all
    gmindc = 1 pS
    rabsshort = 1 mOhm

Notice from spectre during DC analysis `dcOp', during Monte Carlo analysis `mc1'.
    Bad pivoting is found during DC analysis. Option dc_pivot_check=yes is recommended for possible improvement of convergence.


Maximum value achieved for any signal of each quantity: 
V: V(net2) = 3.3 V
I: I(V0:p) = 6.377 uA
Maximum value of each quantity, excluding Verilog-A modules or dangling current sources:
V: V(vout_filt) = 1.601 V
I: I(V0:p) = 6.377 uA

Warning from spectre during check, during DC analysis `dcOp', during Monte Carlo analysis `mc1'.
    WARNING (CMI-2943): Parameter checks have been ignored because the valid value for parameter 'trise' could not be found in 'C1'.
    WARNING (CMI-2943): Parameter checks have been ignored because the valid value for parameter 'trise' could not be found in 'I0.R2.CM'.
    WARNING (CMI-2943): Parameter checks have been ignored because the valid value for parameter 'trise' could not be found in 'I0.R2.CS1'.
    WARNING (CMI-2943): Parameter checks have been ignored because the valid value for parameter 'trise' could not be found in 'I0.R2.CS0'.
    WARNING (CMI-2943): Parameter checks have been ignored because the valid value for parameter 'trise' could not be found in 'I0.C8<3>.C1'.
        Further occurrences of this warning will be suppressed.

Convergence achieved in 19 iterations.
DC simulation time: CPU = 5.714 ms, elapsed = 6.93083 ms.
Total time required for dc analysis `dcOp': CPU = 6.127 ms, elapsed = 7.3421 ms, util. = 83.5%.
Time accumulated: CPU = 1.21563 s, elapsed = 1.8998 s.
Peak resident memory used = 213 Mbytes.


Notice from spectre during Monte Carlo analysis `mc1'.
    34 warnings suppressed.

dcOpInfo: writing operating point information to rawfile.

Opening the PSF file ../psf/mc1_separate/028/dcOpInfo.info ...

************************************************
Transient Analysis `tran': time = (0 s -> 40 ms)
************************************************

Opening the PSF file ../psf/mc1_separate/028/tran.tran.tran ...

Notice from spectre during IC analysis, during transient analysis `tran', during Monte Carlo analysis `mc1'.
    Bad pivoting is found during DC analysis. Option dc_pivot_check=yes is recommended for possible improvement of convergence.
Warning from spectre during check, during IC analysis, during transient analysis `tran', during Monte Carlo analysis `mc1'.
    WARNING (CMI-2943): Parameter checks have been ignored because the valid value for parameter 'trise' could not be found in 'C1'.
    WARNING (CMI-2943): Parameter checks have been ignored because the valid value for parameter 'trise' could not be found in 'I0.R2.CM'.
    WARNING (CMI-2943): Parameter checks have been ignored because the valid value for parameter 'trise' could not be found in 'I0.R2.CS1'.
    WARNING (CMI-2943): Parameter checks have been ignored because the valid value for parameter 'trise' could not be found in 'I0.R2.CS0'.
    WARNING (CMI-2943): Parameter checks have been ignored because the valid value for parameter 'trise' could not be found in 'I0.C8<3>.C1'.
        Further occurrences of this warning will be suppressed.

Convergence achieved in 19 iterations.
DC simulation time: CPU = 2.783 ms, elapsed = 2.78401 ms.
Important parameter values:
    start = 0 s
    outputstart = 0 s
    stop = 40 ms
    step = 40 us
    maxstep = 400 us
    ic = all
    useprevic = no
    skipdc = no
    reltol = 10e-06
    abstol(V) = 1 uV
    abstol(I) = 1 pA
    temp = 27 C
    tnom = 27 C
    tempeffects = all
    errpreset = conservative
    method = gear2only
    lteratio = 10
    relref = alllocal
    cmin = 0 F
    gmin = 1 pS
    rabsshort = 1 mOhm


Notice from spectre during transient analysis `tran', during Monte Carlo analysis `mc1'.
    Multithreading is disabled due to the size of the design being too small.


Output and IC/nodeset summary:
                 save   8       (current)
                 save   83      (voltage)

    tran: time = 1.019 ms    (2.55 %), step = 48.57 us     (121 m%)
    tran: time = 3.033 ms    (7.58 %), step = 47.49 us     (119 m%)
    tran: time = 5.001 ms    (12.5 %), step = 50 us        (125 m%)
    tran: time = 7.014 ms    (17.5 %), step = 49.06 us     (123 m%)
    tran: time = 9.028 ms    (22.6 %), step = 47.89 us     (120 m%)
    tran: time = 11.04 ms    (27.6 %), step = 46.96 us     (117 m%)
    tran: time = 13.01 ms    (32.5 %), step = 49.57 us     (124 m%)
    tran: time = 15.02 ms    (37.6 %), step = 48.32 us     (121 m%)
    tran: time = 17.04 ms    (42.6 %), step = 47.3 us      (118 m%)
    tran: time = 19 ms       (47.5 %), step = 50 us        (125 m%)
    tran: time = 21.02 ms    (52.5 %), step = 48.79 us     (122 m%)
    tran: time = 23.03 ms    (57.6 %), step = 47.66 us     (119 m%)
    tran: time = 25.04 ms    (62.6 %), step = 46.79 us     (117 m%)
    tran: time = 27.01 ms    (67.5 %), step = 49.28 us     (123 m%)
    tran: time = 29.03 ms    (72.6 %), step = 48.08 us     (120 m%)
    tran: time = 31.04 ms    (77.6 %), step = 47.11 us     (118 m%)
    tran: time = 33.01 ms    (82.5 %), step = 49.83 us     (125 m%)
    tran: time = 35.02 ms    (87.5 %), step = 48.54 us     (121 m%)
    tran: time = 37.03 ms    (92.6 %), step = 47.47 us     (119 m%)
    tran: time = 39 ms       (97.5 %), step = 50 us        (125 m%)
Number of accepted tran steps =             851

Maximum value achieved for any signal of each quantity: 
V: V(net2) = 3.3 V
I: I(V0:p) = 6.377 uA
Maximum value of each quantity, excluding Verilog-A modules or dangling current sources:
V: V(vout_filt) = 1.614 V
I: I(V0:p) = 6.377 uA

~~~~~~~~~~~~~~~~~~~~~~~~~~~~~~~~~
Post-Transient Simulation Summary
~~~~~~~~~~~~~~~~~~~~~~~~~~~~~~~~~
   -   To further speed up simulation, consider
          add ++aps on command line
   -   Non-default settings that could significantly slow down simulation
          errpreset = conservative, default moderate
          reltol = 10e-06, default 100e-06 (conservative)
~~~~~~~~~~~~~~~~~~~~~~~~~~~~~~~~~


During simulation, the CPU load for active processors is :
         0 (14.0 %)      1 (25.5 %)      2 (6.6 %)       3 (53.6 %)
         4 (2.6 %)       5 (10.0 %)      6 (99.6 %)      7 (16.5 %)
         8 (5.7 %)       9 (6.0 %)      10 (4.8 %)      11 (6.5 %)
        12 (14.0 %)     13 (2.2 %)      14 (14.7 %)     15 (2.2 %)
        16 (24.3 %)     17 (8.2 %)      18 (56.5 %)     19 (100.0 %)
        21 (4.8 %)      22 (7.4 %)      23 (1.7 %)      24 (100.0 %)
        25 (3.4 %)      26 (10.3 %)     27 (2.2 %)      28 (20.7 %)
        29 (100.0 %)    30 (6.0 %)      31 (3.9 %)      32 (6.6 %)
        33 (20.3 %)     34 (63.8 %)     35 (7.3 %)      36 (7.0 %)
        37 (4.3 %)      38 (71.9 %)     39 (1.8 %)      40 (100.0 %)
        41 (7.4 %)      42 (22.4 %)     43 (3.9 %)      44 (3.9 %)
        45 (3.5 %)      46 (6.1 %)      47 (5.7 %)      
        Total: 1070.5%
Initial condition solution time: CPU = 2.817 ms, elapsed = 2.81906 ms.
Intrinsic tran analysis time:    CPU = 497.359 ms, elapsed = 498.999 ms.
Total time required for tran analysis `tran': CPU = 502.138 ms, elapsed = 504.364 ms, util. = 99.6%.
Time accumulated: CPU = 1.72469 s, elapsed = 2.41359 s.
Peak resident memory used = 213 Mbytes.


Notice from spectre during transient analysis `tran', during Monte Carlo analysis `mc1'.
    34 warnings suppressed.

finalTimeOP: writing operating point information to rawfile.

Opening the PSF file ../psf/mc1_separate/028/finalTimeOP.info ...
modelParameter: writing model parameter values to rawfile.

Opening the PSF file ../psf/mc1_separate/028/modelParameter.info ...
element: writing instance parameter values to rawfile.

Opening the PSF file ../psf/mc1_separate/028/element.info ...
outputParameter: writing output parameter values to rawfile.

Opening the PSF file ../psf/mc1_separate/028/outputParameter.info ...
designParamVals: writing netlist parameters to rawfile.

Opening the PSFASCII file ../psf/mc1_separate/028/designParamVals.info ...
primitives: writing primitives to rawfile.

Opening the PSFASCII file ../psf/mc1_separate/028/primitives.info.primitives ...
subckts: writing subcircuits to rawfile.

Opening the PSFASCII file ../psf/mc1_separate/028/subckts.info.subckts ...
    mc1: iteration = 28          (8.33 %), step = 1            (8.33 %)
29  16.67% 

*****************************************************************************************
* 
* INFO: AMS_processOption = C35B4C3
* 
* INFO: Valid Modules  PIP VG5 HIRES
* 
*****************************************************************************************


******************
DC Analysis `dcOp'
******************

Opening the PSF file ../psf/mc1_separate/029/dcOp.dc ...
Important parameter values:
    reltol = 100e-06
    abstol(V) = 1 uV
    abstol(I) = 1 pA
    temp = 27 C
    tnom = 27 C
    tempeffects = all
    gmindc = 1 pS
    rabsshort = 1 mOhm

Notice from spectre during DC analysis `dcOp', during Monte Carlo analysis `mc1'.
    Bad pivoting is found during DC analysis. Option dc_pivot_check=yes is recommended for possible improvement of convergence.


Maximum value achieved for any signal of each quantity: 
V: V(net2) = 3.3 V
I: I(V0:p) = 6.514 uA
Maximum value of each quantity, excluding Verilog-A modules or dangling current sources:
V: V(net1) = 1.6 V
I: I(V0:p) = 6.514 uA

Warning from spectre during check, during DC analysis `dcOp', during Monte Carlo analysis `mc1'.
    WARNING (CMI-2943): Parameter checks have been ignored because the valid value for parameter 'trise' could not be found in 'C1'.
    WARNING (CMI-2943): Parameter checks have been ignored because the valid value for parameter 'trise' could not be found in 'I0.R2.CM'.
    WARNING (CMI-2943): Parameter checks have been ignored because the valid value for parameter 'trise' could not be found in 'I0.R2.CS1'.
    WARNING (CMI-2943): Parameter checks have been ignored because the valid value for parameter 'trise' could not be found in 'I0.R2.CS0'.
    WARNING (CMI-2943): Parameter checks have been ignored because the valid value for parameter 'trise' could not be found in 'I0.C8<3>.C1'.
        Further occurrences of this warning will be suppressed.

Convergence achieved in 19 iterations.
DC simulation time: CPU = 5.191 ms, elapsed = 6.50883 ms.
Total time required for dc analysis `dcOp': CPU = 5.578 ms, elapsed = 6.90603 ms, util. = 80.8%.
Time accumulated: CPU = 1.77007 s, elapsed = 2.46971 s.
Peak resident memory used = 213 Mbytes.


Notice from spectre during Monte Carlo analysis `mc1'.
    34 warnings suppressed.

dcOpInfo: writing operating point information to rawfile.

Opening the PSF file ../psf/mc1_separate/029/dcOpInfo.info ...

************************************************
Transient Analysis `tran': time = (0 s -> 40 ms)
************************************************

Opening the PSF file ../psf/mc1_separate/029/tran.tran.tran ...

Notice from spectre during IC analysis, during transient analysis `tran', during Monte Carlo analysis `mc1'.
    Bad pivoting is found during DC analysis. Option dc_pivot_check=yes is recommended for possible improvement of convergence.
Warning from spectre during check, during IC analysis, during transient analysis `tran', during Monte Carlo analysis `mc1'.
    WARNING (CMI-2943): Parameter checks have been ignored because the valid value for parameter 'trise' could not be found in 'C1'.
    WARNING (CMI-2943): Parameter checks have been ignored because the valid value for parameter 'trise' could not be found in 'I0.R2.CM'.
    WARNING (CMI-2943): Parameter checks have been ignored because the valid value for parameter 'trise' could not be found in 'I0.R2.CS1'.
    WARNING (CMI-2943): Parameter checks have been ignored because the valid value for parameter 'trise' could not be found in 'I0.R2.CS0'.
    WARNING (CMI-2943): Parameter checks have been ignored because the valid value for parameter 'trise' could not be found in 'I0.C8<3>.C1'.
        Further occurrences of this warning will be suppressed.

Convergence achieved in 19 iterations.
DC simulation time: CPU = 2.718 ms, elapsed = 2.71893 ms.
Important parameter values:
    start = 0 s
    outputstart = 0 s
    stop = 40 ms
    step = 40 us
    maxstep = 400 us
    ic = all
    useprevic = no
    skipdc = no
    reltol = 10e-06
    abstol(V) = 1 uV
    abstol(I) = 1 pA
    temp = 27 C
    tnom = 27 C
    tempeffects = all
    errpreset = conservative
    method = gear2only
    lteratio = 10
    relref = alllocal
    cmin = 0 F
    gmin = 1 pS
    rabsshort = 1 mOhm


Notice from spectre during transient analysis `tran', during Monte Carlo analysis `mc1'.
    Multithreading is disabled due to the size of the design being too small.


Output and IC/nodeset summary:
                 save   8       (current)
                 save   83      (voltage)

    tran: time = 1.023 ms    (2.56 %), step = 48.28 us     (121 m%)
    tran: time = 3.036 ms    (7.59 %), step = 47.28 us     (118 m%)
    tran: time = 5.003 ms    (12.5 %), step = 50 us        (125 m%)
    tran: time = 7.016 ms    (17.5 %), step = 48.82 us     (122 m%)
    tran: time = 9.03 ms     (22.6 %), step = 47.7 us      (119 m%)
    tran: time = 11.04 ms    (27.6 %), step = 46.84 us     (117 m%)
    tran: time = 13.01 ms    (32.5 %), step = 49.4 us      (123 m%)
    tran: time = 15.02 ms    (37.6 %), step = 48.2 us      (121 m%)
    tran: time = 17.04 ms    (42.6 %), step = 47.22 us     (118 m%)
    tran: time = 19 ms       (47.5 %), step = 50 us        (125 m%)
    tran: time = 21.02 ms    (52.5 %), step = 48.73 us     (122 m%)
    tran: time = 23.03 ms    (57.6 %), step = 47.64 us     (119 m%)
    tran: time = 25.04 ms    (62.6 %), step = 46.79 us     (117 m%)
    tran: time = 27.01 ms    (67.5 %), step = 49.3 us      (123 m%)
    tran: time = 29.02 ms    (72.6 %), step = 48.12 us     (120 m%)
    tran: time = 31.04 ms    (77.6 %), step = 47.16 us     (118 m%)
    tran: time = 33.01 ms    (82.5 %), step = 49.95 us     (125 m%)
    tran: time = 35.02 ms    (87.5 %), step = 48.65 us     (122 m%)
    tran: time = 37.03 ms    (92.6 %), step = 47.57 us     (119 m%)
    tran: time = 39.05 ms    (97.6 %), step = 46.73 us     (117 m%)
Number of accepted tran steps =             851

Maximum value achieved for any signal of each quantity: 
V: V(net2) = 3.3 V
I: I(V0:p) = 6.514 uA
Maximum value of each quantity, excluding Verilog-A modules or dangling current sources:
V: V(vout_filt) = 1.613 V
I: I(V0:p) = 6.514 uA

~~~~~~~~~~~~~~~~~~~~~~~~~~~~~~~~~
Post-Transient Simulation Summary
~~~~~~~~~~~~~~~~~~~~~~~~~~~~~~~~~
   -   To further speed up simulation, consider
          add ++aps on command line
   -   Non-default settings that could significantly slow down simulation
          errpreset = conservative, default moderate
          reltol = 10e-06, default 100e-06 (conservative)
~~~~~~~~~~~~~~~~~~~~~~~~~~~~~~~~~


During simulation, the CPU load for active processors is :
         0 (24.3 %)      1 (21.5 %)      2 (6.0 %)       3 (50.2 %)
         4 (6.7 %)       5 (8.4 %)       6 (99.7 %)      7 (29.4 %)
         8 (6.7 %)       9 (4.9 %)      10 (4.9 %)      11 (7.0 %)
        12 (13.0 %)     13 (2.4 %)      14 (15.6 %)     15 (2.8 %)
        16 (20.0 %)     17 (7.3 %)      18 (64.6 %)     19 (100.0 %)
        20 (1.1 %)      21 (3.8 %)      22 (6.3 %)      23 (12.2 %)
        24 (100.0 %)    25 (3.1 %)      26 (23.0 %)     27 (2.1 %)
        28 (20.7 %)     29 (100.0 %)    30 (5.5 %)      31 (15.4 %)
        32 (5.6 %)      33 (16.6 %)     34 (56.1 %)     35 (8.3 %)
        36 (6.0 %)      37 (5.2 %)      38 (76.6 %)     39 (2.5 %)
        40 (100.0 %)    41 (9.1 %)      42 (18.8 %)     43 (3.8 %)
        44 (3.1 %)      45 (2.8 %)      46 (5.2 %)      47 (4.9 %)
        Total: 1113.0%
Initial condition solution time: CPU = 2.756 ms, elapsed = 2.75683 ms.
Intrinsic tran analysis time:    CPU = 498.755 ms, elapsed = 500.437 ms.
Total time required for tran analysis `tran': CPU = 503.208 ms, elapsed = 505.449 ms, util. = 99.6%.
Time accumulated: CPU = 2.28004 s, elapsed = 2.98456 s.
Peak resident memory used = 213 Mbytes.


Notice from spectre during transient analysis `tran', during Monte Carlo analysis `mc1'.
    34 warnings suppressed.

finalTimeOP: writing operating point information to rawfile.

Opening the PSF file ../psf/mc1_separate/029/finalTimeOP.info ...
modelParameter: writing model parameter values to rawfile.

Opening the PSF file ../psf/mc1_separate/029/modelParameter.info ...
element: writing instance parameter values to rawfile.

Opening the PSF file ../psf/mc1_separate/029/element.info ...
outputParameter: writing output parameter values to rawfile.

Opening the PSF file ../psf/mc1_separate/029/outputParameter.info ...
designParamVals: writing netlist parameters to rawfile.

Opening the PSFASCII file ../psf/mc1_separate/029/designParamVals.info ...
primitives: writing primitives to rawfile.

Opening the PSFASCII file ../psf/mc1_separate/029/primitives.info.primitives ...
subckts: writing subcircuits to rawfile.

Opening the PSFASCII file ../psf/mc1_separate/029/subckts.info.subckts ...
    mc1: iteration = 29          (16.7 %), step = 1            (8.33 %)
30  25.00% 

*****************************************************************************************
* 
* INFO: AMS_processOption = C35B4C3
* 
* INFO: Valid Modules  PIP VG5 HIRES
* 
*****************************************************************************************


******************
DC Analysis `dcOp'
******************

Opening the PSF file ../psf/mc1_separate/030/dcOp.dc ...
Important parameter values:
    reltol = 100e-06
    abstol(V) = 1 uV
    abstol(I) = 1 pA
    temp = 27 C
    tnom = 27 C
    tempeffects = all
    gmindc = 1 pS
    rabsshort = 1 mOhm

Notice from spectre during DC analysis `dcOp', during Monte Carlo analysis `mc1'.
    Bad pivoting is found during DC analysis. Option dc_pivot_check=yes is recommended for possible improvement of convergence.


Maximum value achieved for any signal of each quantity: 
V: V(net2) = 3.3 V
I: I(V0:p) = 6.434 uA
Maximum value of each quantity, excluding Verilog-A modules or dangling current sources:
V: V(vout_filt) = 1.601 V
I: I(V0:p) = 6.434 uA

Warning from spectre during check, during DC analysis `dcOp', during Monte Carlo analysis `mc1'.
    WARNING (CMI-2943): Parameter checks have been ignored because the valid value for parameter 'trise' could not be found in 'C1'.
    WARNING (CMI-2943): Parameter checks have been ignored because the valid value for parameter 'trise' could not be found in 'I0.R2.CM'.
    WARNING (CMI-2943): Parameter checks have been ignored because the valid value for parameter 'trise' could not be found in 'I0.R2.CS1'.
    WARNING (CMI-2943): Parameter checks have been ignored because the valid value for parameter 'trise' could not be found in 'I0.R2.CS0'.
    WARNING (CMI-2943): Parameter checks have been ignored because the valid value for parameter 'trise' could not be found in 'I0.C8<3>.C1'.
        Further occurrences of this warning will be suppressed.

Convergence achieved in 18 iterations.
DC simulation time: CPU = 5.24 ms, elapsed = 6.35099 ms.
Total time required for dc analysis `dcOp': CPU = 5.632 ms, elapsed = 6.742 ms, util. = 83.5%.
Time accumulated: CPU = 2.32559 s, elapsed = 3.04078 s.
Peak resident memory used = 213 Mbytes.


Notice from spectre during Monte Carlo analysis `mc1'.
    34 warnings suppressed.

dcOpInfo: writing operating point information to rawfile.

Opening the PSF file ../psf/mc1_separate/030/dcOpInfo.info ...

************************************************
Transient Analysis `tran': time = (0 s -> 40 ms)
************************************************

Opening the PSF file ../psf/mc1_separate/030/tran.tran.tran ...

Notice from spectre during IC analysis, during transient analysis `tran', during Monte Carlo analysis `mc1'.
    Bad pivoting is found during DC analysis. Option dc_pivot_check=yes is recommended for possible improvement of convergence.
Warning from spectre during check, during IC analysis, during transient analysis `tran', during Monte Carlo analysis `mc1'.
    WARNING (CMI-2943): Parameter checks have been ignored because the valid value for parameter 'trise' could not be found in 'C1'.
    WARNING (CMI-2943): Parameter checks have been ignored because the valid value for parameter 'trise' could not be found in 'I0.R2.CM'.
    WARNING (CMI-2943): Parameter checks have been ignored because the valid value for parameter 'trise' could not be found in 'I0.R2.CS1'.
    WARNING (CMI-2943): Parameter checks have been ignored because the valid value for parameter 'trise' could not be found in 'I0.R2.CS0'.
    WARNING (CMI-2943): Parameter checks have been ignored because the valid value for parameter 'trise' could not be found in 'I0.C8<3>.C1'.
        Further occurrences of this warning will be suppressed.

Convergence achieved in 18 iterations.
DC simulation time: CPU = 2.638 ms, elapsed = 2.63906 ms.
Important parameter values:
    start = 0 s
    outputstart = 0 s
    stop = 40 ms
    step = 40 us
    maxstep = 400 us
    ic = all
    useprevic = no
    skipdc = no
    reltol = 10e-06
    abstol(V) = 1 uV
    abstol(I) = 1 pA
    temp = 27 C
    tnom = 27 C
    tempeffects = all
    errpreset = conservative
    method = gear2only
    lteratio = 10
    relref = alllocal
    cmin = 0 F
    gmin = 1 pS
    rabsshort = 1 mOhm


Notice from spectre during transient analysis `tran', during Monte Carlo analysis `mc1'.
    Multithreading is disabled due to the size of the design being too small.


Output and IC/nodeset summary:
                 save   8       (current)
                 save   83      (voltage)

    tran: time = 1.019 ms    (2.55 %), step = 48.6 us      (121 m%)
    tran: time = 3.033 ms    (7.58 %), step = 47.51 us     (119 m%)
    tran: time = 5 ms        (12.5 %), step = 50 us        (125 m%)
    tran: time = 7.014 ms    (17.5 %), step = 49.08 us     (123 m%)
    tran: time = 9.028 ms    (22.6 %), step = 47.9 us      (120 m%)
    tran: time = 11.04 ms    (27.6 %), step = 46.97 us     (117 m%)
    tran: time = 13.01 ms    (32.5 %), step = 49.59 us     (124 m%)
    tran: time = 15.02 ms    (37.6 %), step = 48.33 us     (121 m%)
    tran: time = 17.04 ms    (42.6 %), step = 47.3 us      (118 m%)
    tran: time = 19 ms       (47.5 %), step = 50 us        (125 m%)
    tran: time = 21.02 ms    (52.5 %), step = 48.79 us     (122 m%)
    tran: time = 23.03 ms    (57.6 %), step = 47.66 us     (119 m%)
    tran: time = 25.04 ms    (62.6 %), step = 46.79 us     (117 m%)
    tran: time = 27.01 ms    (67.5 %), step = 49.27 us     (123 m%)
    tran: time = 29.03 ms    (72.6 %), step = 48.07 us     (120 m%)
    tran: time = 31.04 ms    (77.6 %), step = 47.1 us      (118 m%)
    tran: time = 33.01 ms    (82.5 %), step = 49.8 us      (125 m%)
    tran: time = 35.02 ms    (87.6 %), step = 48.51 us     (121 m%)
    tran: time = 37.03 ms    (92.6 %), step = 47.44 us     (119 m%)
    tran: time = 39 ms       (97.5 %), step = 50 us        (125 m%)
Number of accepted tran steps =             851

Maximum value achieved for any signal of each quantity: 
V: V(net2) = 3.3 V
I: I(V0:p) = 6.435 uA
Maximum value of each quantity, excluding Verilog-A modules or dangling current sources:
V: V(vout_filt) = 1.615 V
I: I(V0:p) = 6.435 uA

~~~~~~~~~~~~~~~~~~~~~~~~~~~~~~~~~
Post-Transient Simulation Summary
~~~~~~~~~~~~~~~~~~~~~~~~~~~~~~~~~
   -   To further speed up simulation, consider
          add ++aps on command line
   -   Non-default settings that could significantly slow down simulation
          errpreset = conservative, default moderate
          reltol = 10e-06, default 100e-06 (conservative)
~~~~~~~~~~~~~~~~~~~~~~~~~~~~~~~~~


During simulation, the CPU load for active processors is :
         0 (35.9 %)      1 (19.7 %)      2 (5.0 %)       3 (42.2 %)
         4 (6.7 %)       5 (7.6 %)       6 (99.7 %)      7 (28.9 %)
         8 (5.8 %)       9 (4.7 %)      10 (4.4 %)      11 (6.4 %)
        12 (11.7 %)     13 (2.6 %)      14 (14.8 %)     15 (4.9 %)
        16 (17.5 %)     17 (6.4 %)      18 (70.1 %)     19 (100.0 %)
        20 (14.0 %)     21 (4.4 %)      22 (5.8 %)      23 (18.4 %)
        24 (100.0 %)    25 (11.0 %)     26 (23.1 %)     27 (1.8 %)
        28 (18.2 %)     29 (100.0 %)    30 (4.9 %)      31 (29.2 %)
        32 (5.2 %)      33 (14.2 %)     34 (59.1 %)     35 (7.5 %)
        36 (17.3 %)     37 (6.7 %)      38 (79.8 %)     39 (3.2 %)
        40 (100.0 %)    41 (8.5 %)      42 (16.5 %)     43 (3.8 %)
        44 (2.9 %)      45 (2.6 %)      46 (5.8 %)      47 (6.7 %)
        Total: 1165.7%
Initial condition solution time: CPU = 2.672 ms, elapsed = 2.67291 ms.
Intrinsic tran analysis time:    CPU = 499.575 ms, elapsed = 500.932 ms.
Total time required for tran analysis `tran': CPU = 504.041 ms, elapsed = 505.955 ms, util. = 99.6%.
Time accumulated: CPU = 2.83639 s, elapsed = 3.55571 s.
Peak resident memory used = 213 Mbytes.


Notice from spectre during transient analysis `tran', during Monte Carlo analysis `mc1'.
    34 warnings suppressed.

finalTimeOP: writing operating point information to rawfile.

Opening the PSF file ../psf/mc1_separate/030/finalTimeOP.info ...
modelParameter: writing model parameter values to rawfile.

Opening the PSF file ../psf/mc1_separate/030/modelParameter.info ...
element: writing instance parameter values to rawfile.

Opening the PSF file ../psf/mc1_separate/030/element.info ...
outputParameter: writing output parameter values to rawfile.

Opening the PSF file ../psf/mc1_separate/030/outputParameter.info ...
designParamVals: writing netlist parameters to rawfile.

Opening the PSFASCII file ../psf/mc1_separate/030/designParamVals.info ...
primitives: writing primitives to rawfile.

Opening the PSFASCII file ../psf/mc1_separate/030/primitives.info.primitives ...
subckts: writing subcircuits to rawfile.

Opening the PSFASCII file ../psf/mc1_separate/030/subckts.info.subckts ...
    mc1: iteration = 30            (25 %), step = 1            (8.33 %)
31  33.33% 

*****************************************************************************************
* 
* INFO: AMS_processOption = C35B4C3
* 
* INFO: Valid Modules  PIP VG5 HIRES
* 
*****************************************************************************************


******************
DC Analysis `dcOp'
******************

Opening the PSF file ../psf/mc1_separate/031/dcOp.dc ...
Important parameter values:
    reltol = 100e-06
    abstol(V) = 1 uV
    abstol(I) = 1 pA
    temp = 27 C
    tnom = 27 C
    tempeffects = all
    gmindc = 1 pS
    rabsshort = 1 mOhm

Notice from spectre during DC analysis `dcOp', during Monte Carlo analysis `mc1'.
    Bad pivoting is found during DC analysis. Option dc_pivot_check=yes is recommended for possible improvement of convergence.


Maximum value achieved for any signal of each quantity: 
V: V(net2) = 3.3 V
I: I(V0:p) = 6.636 uA
Maximum value of each quantity, excluding Verilog-A modules or dangling current sources:
V: V(net1) = 1.6 V
I: I(V0:p) = 6.636 uA

Warning from spectre during check, during DC analysis `dcOp', during Monte Carlo analysis `mc1'.
    WARNING (CMI-2943): Parameter checks have been ignored because the valid value for parameter 'trise' could not be found in 'C1'.
    WARNING (CMI-2943): Parameter checks have been ignored because the valid value for parameter 'trise' could not be found in 'I0.R2.CM'.
    WARNING (CMI-2943): Parameter checks have been ignored because the valid value for parameter 'trise' could not be found in 'I0.R2.CS1'.
    WARNING (CMI-2943): Parameter checks have been ignored because the valid value for parameter 'trise' could not be found in 'I0.R2.CS0'.
    WARNING (CMI-2943): Parameter checks have been ignored because the valid value for parameter 'trise' could not be found in 'I0.C8<3>.C1'.
        Further occurrences of this warning will be suppressed.

Convergence achieved in 18 iterations.
DC simulation time: CPU = 5.576 ms, elapsed = 6.6359 ms.
Total time required for dc analysis `dcOp': CPU = 6.036 ms, elapsed = 7.09486 ms, util. = 85.1%.
Time accumulated: CPU = 2.88502 s, elapsed = 3.61587 s.
Peak resident memory used = 213 Mbytes.


Notice from spectre during Monte Carlo analysis `mc1'.
    34 warnings suppressed.

dcOpInfo: writing operating point information to rawfile.

Opening the PSF file ../psf/mc1_separate/031/dcOpInfo.info ...

************************************************
Transient Analysis `tran': time = (0 s -> 40 ms)
************************************************

Opening the PSF file ../psf/mc1_separate/031/tran.tran.tran ...

Notice from spectre during IC analysis, during transient analysis `tran', during Monte Carlo analysis `mc1'.
    Bad pivoting is found during DC analysis. Option dc_pivot_check=yes is recommended for possible improvement of convergence.
Warning from spectre during check, during IC analysis, during transient analysis `tran', during Monte Carlo analysis `mc1'.
    WARNING (CMI-2943): Parameter checks have been ignored because the valid value for parameter 'trise' could not be found in 'C1'.
    WARNING (CMI-2943): Parameter checks have been ignored because the valid value for parameter 'trise' could not be found in 'I0.R2.CM'.
    WARNING (CMI-2943): Parameter checks have been ignored because the valid value for parameter 'trise' could not be found in 'I0.R2.CS1'.
    WARNING (CMI-2943): Parameter checks have been ignored because the valid value for parameter 'trise' could not be found in 'I0.R2.CS0'.
    WARNING (CMI-2943): Parameter checks have been ignored because the valid value for parameter 'trise' could not be found in 'I0.C8<3>.C1'.
        Further occurrences of this warning will be suppressed.

Convergence achieved in 18 iterations.
DC simulation time: CPU = 2.735 ms, elapsed = 2.73609 ms.
Important parameter values:
    start = 0 s
    outputstart = 0 s
    stop = 40 ms
    step = 40 us
    maxstep = 400 us
    ic = all
    useprevic = no
    skipdc = no
    reltol = 10e-06
    abstol(V) = 1 uV
    abstol(I) = 1 pA
    temp = 27 C
    tnom = 27 C
    tempeffects = all
    errpreset = conservative
    method = gear2only
    lteratio = 10
    relref = alllocal
    cmin = 0 F
    gmin = 1 pS
    rabsshort = 1 mOhm


Notice from spectre during transient analysis `tran', during Monte Carlo analysis `mc1'.
    Multithreading is disabled due to the size of the design being too small.


Output and IC/nodeset summary:
                 save   8       (current)
                 save   83      (voltage)

    tran: time = 1.026 ms    (2.57 %), step = 47.98 us     (120 m%)
    tran: time = 3.04 ms      (7.6 %), step = 47.06 us     (118 m%)
    tran: time = 5.006 ms    (12.5 %), step = 49.81 us     (125 m%)
    tran: time = 7.019 ms    (17.5 %), step = 48.55 us     (121 m%)
    tran: time = 9.033 ms    (22.6 %), step = 47.51 us     (119 m%)
    tran: time = 11.05 ms    (27.6 %), step = 46.69 us     (117 m%)
    tran: time = 13.01 ms    (32.5 %), step = 49.17 us     (123 m%)
    tran: time = 15.03 ms    (37.6 %), step = 48.02 us     (120 m%)
    tran: time = 17.04 ms    (42.6 %), step = 47.09 us     (118 m%)
    tran: time = 19.01 ms    (47.5 %), step = 49.86 us     (125 m%)
    tran: time = 21.02 ms    (52.5 %), step = 48.59 us     (121 m%)
    tran: time = 23.03 ms    (57.6 %), step = 47.54 us     (119 m%)
    tran: time = 25.05 ms    (62.6 %), step = 46.72 us     (117 m%)
    tran: time = 27.01 ms    (67.5 %), step = 49.21 us     (123 m%)
    tran: time = 29.03 ms    (72.6 %), step = 48.05 us     (120 m%)
    tran: time = 31.04 ms    (77.6 %), step = 47.12 us     (118 m%)
    tran: time = 33.01 ms    (82.5 %), step = 49.9 us      (125 m%)
    tran: time = 35.02 ms    (87.5 %), step = 48.63 us     (122 m%)
    tran: time = 37.03 ms    (92.6 %), step = 47.56 us     (119 m%)
    tran: time = 39.05 ms    (97.6 %), step = 46.74 us     (117 m%)
Number of accepted tran steps =             851

Maximum value achieved for any signal of each quantity: 
V: V(net2) = 3.3 V
I: I(V0:p) = 6.636 uA
Maximum value of each quantity, excluding Verilog-A modules or dangling current sources:
V: V(vout_filt) = 1.612 V
I: I(V0:p) = 6.636 uA

~~~~~~~~~~~~~~~~~~~~~~~~~~~~~~~~~
Post-Transient Simulation Summary
~~~~~~~~~~~~~~~~~~~~~~~~~~~~~~~~~
   -   To further speed up simulation, consider
          add ++aps on command line
   -   Non-default settings that could significantly slow down simulation
          errpreset = conservative, default moderate
          reltol = 10e-06, default 100e-06 (conservative)
~~~~~~~~~~~~~~~~~~~~~~~~~~~~~~~~~


During simulation, the CPU load for active processors is :
         0 (34.6 %)      1 (17.2 %)      2 (4.3 %)       3 (36.6 %)
         4 (7.3 %)       5 (7.5 %)       6 (99.8 %)      7 (35.5 %)
         8 (6.3 %)       9 (5.0 %)      10 (4.0 %)      11 (5.8 %)
        12 (11.8 %)     13 (2.8 %)      14 (13.0 %)     15 (7.2 %)
        16 (15.2 %)     17 (6.5 %)      18 (62.0 %)     19 (100.0 %)
        20 (25.9 %)     21 (5.0 %)      22 (18.6 %)     23 (16.3 %)
        24 (100.0 %)    25 (13.5 %)     26 (30.1 %)     27 (2.0 %)
        28 (16.5 %)     29 (100.0 %)    30 (5.0 %)      31 (38.5 %)
        32 (5.0 %)      33 (12.5 %)     34 (63.9 %)     35 (7.0 %)
        36 (26.4 %)     37 (9.0 %)      38 (81.4 %)     39 (4.3 %)
        40 (100.0 %)    41 (8.1 %)      42 (14.3 %)     43 (4.3 %)
        44 (3.0 %)      45 (4.0 %)      46 (5.7 %)      47 (7.8 %)
        Total: 1210.5%
Initial condition solution time: CPU = 2.772 ms, elapsed = 2.77495 ms.
Intrinsic tran analysis time:    CPU = 489.184 ms, elapsed = 490.64 ms.
Total time required for tran analysis `tran': CPU = 494.053 ms, elapsed = 496.079 ms, util. = 99.6%.
Time accumulated: CPU = 3.38593 s, elapsed = 4.12104 s.
Peak resident memory used = 213 Mbytes.


Notice from spectre during transient analysis `tran', during Monte Carlo analysis `mc1'.
    34 warnings suppressed.

finalTimeOP: writing operating point information to rawfile.

Opening the PSF file ../psf/mc1_separate/031/finalTimeOP.info ...
modelParameter: writing model parameter values to rawfile.

Opening the PSF file ../psf/mc1_separate/031/modelParameter.info ...
element: writing instance parameter values to rawfile.

Opening the PSF file ../psf/mc1_separate/031/element.info ...
outputParameter: writing output parameter values to rawfile.

Opening the PSF file ../psf/mc1_separate/031/outputParameter.info ...
designParamVals: writing netlist parameters to rawfile.

Opening the PSFASCII file ../psf/mc1_separate/031/designParamVals.info ...
primitives: writing primitives to rawfile.

Opening the PSFASCII file ../psf/mc1_separate/031/primitives.info.primitives ...
subckts: writing subcircuits to rawfile.

Opening the PSFASCII file ../psf/mc1_separate/031/subckts.info.subckts ...
    mc1: iteration = 31          (33.3 %), step = 1            (8.33 %)
32  41.67% 

*****************************************************************************************
* 
* INFO: AMS_processOption = C35B4C3
* 
* INFO: Valid Modules  PIP VG5 HIRES
* 
*****************************************************************************************


******************
DC Analysis `dcOp'
******************

Opening the PSF file ../psf/mc1_separate/032/dcOp.dc ...
Important parameter values:
    reltol = 100e-06
    abstol(V) = 1 uV
    abstol(I) = 1 pA
    temp = 27 C
    tnom = 27 C
    tempeffects = all
    gmindc = 1 pS
    rabsshort = 1 mOhm

Notice from spectre during DC analysis `dcOp', during Monte Carlo analysis `mc1'.
    Bad pivoting is found during DC analysis. Option dc_pivot_check=yes is recommended for possible improvement of convergence.


Maximum value achieved for any signal of each quantity: 
V: V(net2) = 3.3 V
I: I(V0:p) = 6.41 uA
Maximum value of each quantity, excluding Verilog-A modules or dangling current sources:
V: V(vout_filt) = 1.6 V
I: I(V0:p) = 6.41 uA

Warning from spectre during check, during DC analysis `dcOp', during Monte Carlo analysis `mc1'.
    WARNING (CMI-2943): Parameter checks have been ignored because the valid value for parameter 'trise' could not be found in 'C1'.
    WARNING (CMI-2943): Parameter checks have been ignored because the valid value for parameter 'trise' could not be found in 'I0.R2.CM'.
    WARNING (CMI-2943): Parameter checks have been ignored because the valid value for parameter 'trise' could not be found in 'I0.R2.CS1'.
    WARNING (CMI-2943): Parameter checks have been ignored because the valid value for parameter 'trise' could not be found in 'I0.R2.CS0'.
    WARNING (CMI-2943): Parameter checks have been ignored because the valid value for parameter 'trise' could not be found in 'I0.C8<3>.C1'.
        Further occurrences of this warning will be suppressed.

Convergence achieved in 20 iterations.
DC simulation time: CPU = 6.194 ms, elapsed = 7.52687 ms.
Total time required for dc analysis `dcOp': CPU = 6.675 ms, elapsed = 8.00705 ms, util. = 83.4%.
Time accumulated: CPU = 3.43913 s, elapsed = 4.18575 s.
Peak resident memory used = 213 Mbytes.


Notice from spectre during Monte Carlo analysis `mc1'.
    34 warnings suppressed.

dcOpInfo: writing operating point information to rawfile.

Opening the PSF file ../psf/mc1_separate/032/dcOpInfo.info ...

************************************************
Transient Analysis `tran': time = (0 s -> 40 ms)
************************************************

Opening the PSF file ../psf/mc1_separate/032/tran.tran.tran ...

Notice from spectre during IC analysis, during transient analysis `tran', during Monte Carlo analysis `mc1'.
    Bad pivoting is found during DC analysis. Option dc_pivot_check=yes is recommended for possible improvement of convergence.
Warning from spectre during check, during IC analysis, during transient analysis `tran', during Monte Carlo analysis `mc1'.
    WARNING (CMI-2943): Parameter checks have been ignored because the valid value for parameter 'trise' could not be found in 'C1'.
    WARNING (CMI-2943): Parameter checks have been ignored because the valid value for parameter 'trise' could not be found in 'I0.R2.CM'.
    WARNING (CMI-2943): Parameter checks have been ignored because the valid value for parameter 'trise' could not be found in 'I0.R2.CS1'.
    WARNING (CMI-2943): Parameter checks have been ignored because the valid value for parameter 'trise' could not be found in 'I0.R2.CS0'.
    WARNING (CMI-2943): Parameter checks have been ignored because the valid value for parameter 'trise' could not be found in 'I0.C8<3>.C1'.
        Further occurrences of this warning will be suppressed.

Convergence achieved in 20 iterations.
DC simulation time: CPU = 3.018 ms, elapsed = 3.0179 ms.
Important parameter values:
    start = 0 s
    outputstart = 0 s
    stop = 40 ms
    step = 40 us
    maxstep = 400 us
    ic = all
    useprevic = no
    skipdc = no
    reltol = 10e-06
    abstol(V) = 1 uV
    abstol(I) = 1 pA
    temp = 27 C
    tnom = 27 C
    tempeffects = all
    errpreset = conservative
    method = gear2only
    lteratio = 10
    relref = alllocal
    cmin = 0 F
    gmin = 1 pS
    rabsshort = 1 mOhm


Notice from spectre during transient analysis `tran', during Monte Carlo analysis `mc1'.
    Multithreading is disabled due to the size of the design being too small.


Output and IC/nodeset summary:
                 save   8       (current)
                 save   83      (voltage)

    tran: time = 1.02 ms     (2.55 %), step = 48.5 us      (121 m%)
    tran: time = 3.034 ms    (7.59 %), step = 47.44 us     (119 m%)
    tran: time = 5.001 ms    (12.5 %), step = 50 us        (125 m%)
    tran: time = 7.015 ms    (17.5 %), step = 49.01 us     (123 m%)
    tran: time = 9.028 ms    (22.6 %), step = 47.85 us     (120 m%)
    tran: time = 11.04 ms    (27.6 %), step = 46.94 us     (117 m%)
    tran: time = 13.01 ms    (32.5 %), step = 49.55 us     (124 m%)
    tran: time = 15.02 ms    (37.6 %), step = 48.31 us     (121 m%)
    tran: time = 17.04 ms    (42.6 %), step = 47.29 us     (118 m%)
    tran: time = 19 ms       (47.5 %), step = 50 us        (125 m%)
    tran: time = 21.02 ms    (52.5 %), step = 48.8 us      (122 m%)
    tran: time = 23.03 ms    (57.6 %), step = 47.67 us     (119 m%)
    tran: time = 25.04 ms    (62.6 %), step = 46.81 us     (117 m%)
    tran: time = 27.01 ms    (67.5 %), step = 49.31 us     (123 m%)
    tran: time = 29.02 ms    (72.6 %), step = 48.11 us     (120 m%)
    tran: time = 31.04 ms    (77.6 %), step = 47.14 us     (118 m%)
    tran: time = 33.01 ms    (82.5 %), step = 49.89 us     (125 m%)
    tran: time = 35.02 ms    (87.5 %), step = 48.59 us     (121 m%)
    tran: time = 37.03 ms    (92.6 %), step = 47.51 us     (119 m%)
    tran: time = 39.05 ms    (97.6 %), step = 46.68 us     (117 m%)
Number of accepted tran steps =             851

Maximum value achieved for any signal of each quantity: 
V: V(net2) = 3.3 V
I: I(V0:p) = 6.411 uA
Maximum value of each quantity, excluding Verilog-A modules or dangling current sources:
V: V(vout_filt) = 1.614 V
I: I(V0:p) = 6.411 uA

~~~~~~~~~~~~~~~~~~~~~~~~~~~~~~~~~
Post-Transient Simulation Summary
~~~~~~~~~~~~~~~~~~~~~~~~~~~~~~~~~
   -   To further speed up simulation, consider
          add ++aps on command line
   -   Non-default settings that could significantly slow down simulation
          errpreset = conservative, default moderate
          reltol = 10e-06, default 100e-06 (conservative)
~~~~~~~~~~~~~~~~~~~~~~~~~~~~~~~~~


During simulation, the CPU load for active processors is :
         0 (30.5 %)      1 (15.5 %)      2 (4.4 %)       3 (33.5 %)
         4 (6.6 %)       5 (7.2 %)       6 (99.8 %)      7 (43.5 %)
         8 (5.5 %)       9 (5.4 %)      10 (4.1 %)      11 (5.5 %)
        12 (22.1 %)     13 (5.1 %)      14 (13.5 %)     15 (8.3 %)
        16 (14.7 %)     17 (6.1 %)      18 (54.4 %)     19 (97.8 %)
        20 (34.6 %)     21 (4.4 %)      22 (19.0 %)     23 (14.7 %)
        24 (100.0 %)    25 (12.0 %)     26 (38.7 %)     27 (2.2 %)
        28 (14.6 %)     29 (100.0 %)    30 (5.6 %)      31 (44.6 %)
        32 (4.6 %)      33 (11.3 %)     34 (68.0 %)     35 (6.5 %)
        36 (24.6 %)     37 (10.7 %)     38 (72.1 %)     39 (16.4 %)
        40 (100.0 %)    41 (7.1 %)      42 (12.9 %)     43 (4.6 %)
        44 (3.3 %)      45 (4.4 %)      46 (10.7 %)     47 (12.9 %)
        Total: 1243.7%
Initial condition solution time: CPU = 3.07 ms, elapsed = 3.07298 ms.
Intrinsic tran analysis time:    CPU = 504.325 ms, elapsed = 518.553 ms.
Total time required for tran analysis `tran': CPU = 509.356 ms, elapsed = 524.084 ms, util. = 97.2%.
Time accumulated: CPU = 3.95529 s, elapsed = 4.71902 s.
Peak resident memory used = 213 Mbytes.


Notice from spectre during transient analysis `tran', during Monte Carlo analysis `mc1'.
    34 warnings suppressed.

finalTimeOP: writing operating point information to rawfile.

Opening the PSF file ../psf/mc1_separate/032/finalTimeOP.info ...
modelParameter: writing model parameter values to rawfile.

Opening the PSF file ../psf/mc1_separate/032/modelParameter.info ...
element: writing instance parameter values to rawfile.

Opening the PSF file ../psf/mc1_separate/032/element.info ...
outputParameter: writing output parameter values to rawfile.

Opening the PSF file ../psf/mc1_separate/032/outputParameter.info ...
designParamVals: writing netlist parameters to rawfile.

Opening the PSFASCII file ../psf/mc1_separate/032/designParamVals.info ...
primitives: writing primitives to rawfile.

Opening the PSFASCII file ../psf/mc1_separate/032/primitives.info.primitives ...
subckts: writing subcircuits to rawfile.

Opening the PSFASCII file ../psf/mc1_separate/032/subckts.info.subckts ...
    mc1: iteration = 32          (41.7 %), step = 1            (8.33 %)
33  50.00% 

*****************************************************************************************
* 
* INFO: AMS_processOption = C35B4C3
* 
* INFO: Valid Modules  PIP VG5 HIRES
* 
*****************************************************************************************


******************
DC Analysis `dcOp'
******************

Opening the PSF file ../psf/mc1_separate/033/dcOp.dc ...
Important parameter values:
    reltol = 100e-06
    abstol(V) = 1 uV
    abstol(I) = 1 pA
    temp = 27 C
    tnom = 27 C
    tempeffects = all
    gmindc = 1 pS
    rabsshort = 1 mOhm

Notice from spectre during DC analysis `dcOp', during Monte Carlo analysis `mc1'.
    Bad pivoting is found during DC analysis. Option dc_pivot_check=yes is recommended for possible improvement of convergence.


Maximum value achieved for any signal of each quantity: 
V: V(net2) = 3.3 V
I: I(V0:p) = 6.524 uA
Maximum value of each quantity, excluding Verilog-A modules or dangling current sources:
V: V(vout_filt) = 1.6 V
I: I(V0:p) = 6.524 uA

Warning from spectre during check, during DC analysis `dcOp', during Monte Carlo analysis `mc1'.
    WARNING (CMI-2943): Parameter checks have been ignored because the valid value for parameter 'trise' could not be found in 'C1'.
    WARNING (CMI-2943): Parameter checks have been ignored because the valid value for parameter 'trise' could not be found in 'I0.R2.CM'.
    WARNING (CMI-2943): Parameter checks have been ignored because the valid value for parameter 'trise' could not be found in 'I0.R2.CS1'.
    WARNING (CMI-2943): Parameter checks have been ignored because the valid value for parameter 'trise' could not be found in 'I0.R2.CS0'.
    WARNING (CMI-2943): Parameter checks have been ignored because the valid value for parameter 'trise' could not be found in 'I0.C8<3>.C1'.
        Further occurrences of this warning will be suppressed.

Convergence achieved in 18 iterations.
DC simulation time: CPU = 5.002 ms, elapsed = 6.37197 ms.
Total time required for dc analysis `dcOp': CPU = 5.354 ms, elapsed = 6.72317 ms, util. = 79.6%.
Time accumulated: CPU = 4.00043 s, elapsed = 4.77495 s.
Peak resident memory used = 213 Mbytes.


Notice from spectre during Monte Carlo analysis `mc1'.
    34 warnings suppressed.

dcOpInfo: writing operating point information to rawfile.

Opening the PSF file ../psf/mc1_separate/033/dcOpInfo.info ...

************************************************
Transient Analysis `tran': time = (0 s -> 40 ms)
************************************************

Opening the PSF file ../psf/mc1_separate/033/tran.tran.tran ...

Notice from spectre during IC analysis, during transient analysis `tran', during Monte Carlo analysis `mc1'.
    Bad pivoting is found during DC analysis. Option dc_pivot_check=yes is recommended for possible improvement of convergence.
Warning from spectre during check, during IC analysis, during transient analysis `tran', during Monte Carlo analysis `mc1'.
    WARNING (CMI-2943): Parameter checks have been ignored because the valid value for parameter 'trise' could not be found in 'C1'.
    WARNING (CMI-2943): Parameter checks have been ignored because the valid value for parameter 'trise' could not be found in 'I0.R2.CM'.
    WARNING (CMI-2943): Parameter checks have been ignored because the valid value for parameter 'trise' could not be found in 'I0.R2.CS1'.
    WARNING (CMI-2943): Parameter checks have been ignored because the valid value for parameter 'trise' could not be found in 'I0.R2.CS0'.
    WARNING (CMI-2943): Parameter checks have been ignored because the valid value for parameter 'trise' could not be found in 'I0.C8<3>.C1'.
        Further occurrences of this warning will be suppressed.

Convergence achieved in 18 iterations.
DC simulation time: CPU = 2.617 ms, elapsed = 2.61688 ms.
Important parameter values:
    start = 0 s
    outputstart = 0 s
    stop = 40 ms
    step = 40 us
    maxstep = 400 us
    ic = all
    useprevic = no
    skipdc = no
    reltol = 10e-06
    abstol(V) = 1 uV
    abstol(I) = 1 pA
    temp = 27 C
    tnom = 27 C
    tempeffects = all
    errpreset = conservative
    method = gear2only
    lteratio = 10
    relref = alllocal
    cmin = 0 F
    gmin = 1 pS
    rabsshort = 1 mOhm


Notice from spectre during transient analysis `tran', during Monte Carlo analysis `mc1'.
    Multithreading is disabled due to the size of the design being too small.


Output and IC/nodeset summary:
                 save   8       (current)
                 save   83      (voltage)

    tran: time = 1.019 ms    (2.55 %), step = 48.6 us      (121 m%)
    tran: time = 3.033 ms    (7.58 %), step = 47.52 us     (119 m%)
    tran: time = 5.046 ms    (12.6 %), step = 46.69 us     (117 m%)
    tran: time = 7.013 ms    (17.5 %), step = 49.14 us     (123 m%)
    tran: time = 9.027 ms    (22.6 %), step = 47.97 us     (120 m%)
    tran: time = 11.04 ms    (27.6 %), step = 47.04 us     (118 m%)
    tran: time = 13.01 ms    (32.5 %), step = 49.73 us     (124 m%)
    tran: time = 15.02 ms    (37.6 %), step = 48.46 us     (121 m%)
    tran: time = 17.03 ms    (42.6 %), step = 47.42 us     (119 m%)
    tran: time = 19 ms       (47.5 %), step = 50 us        (125 m%)
    tran: time = 21.01 ms    (52.5 %), step = 48.99 us     (122 m%)
    tran: time = 23.03 ms    (57.6 %), step = 47.84 us     (120 m%)
    tran: time = 25.04 ms    (62.6 %), step = 46.93 us     (117 m%)
    tran: time = 27.01 ms    (67.5 %), step = 49.55 us     (124 m%)
    tran: time = 29.02 ms    (72.6 %), step = 48.31 us     (121 m%)
    tran: time = 31.04 ms    (77.6 %), step = 47.3 us      (118 m%)
    tran: time = 33 ms       (82.5 %), step = 50 us        (125 m%)
    tran: time = 35.02 ms    (87.5 %), step = 48.83 us     (122 m%)
    tran: time = 37.03 ms    (92.6 %), step = 47.71 us     (119 m%)
    tran: time = 39.04 ms    (97.6 %), step = 46.84 us     (117 m%)
Number of accepted tran steps =             851

Maximum value achieved for any signal of each quantity: 
V: V(net2) = 3.3 V
I: I(V0:p) = 6.525 uA
Maximum value of each quantity, excluding Verilog-A modules or dangling current sources:
V: V(vout_filt) = 1.614 V
I: I(V0:p) = 6.525 uA

~~~~~~~~~~~~~~~~~~~~~~~~~~~~~~~~~
Post-Transient Simulation Summary
~~~~~~~~~~~~~~~~~~~~~~~~~~~~~~~~~
   -   To further speed up simulation, consider
          add ++aps on command line
   -   Non-default settings that could significantly slow down simulation
          errpreset = conservative, default moderate
          reltol = 10e-06, default 100e-06 (conservative)
~~~~~~~~~~~~~~~~~~~~~~~~~~~~~~~~~


During simulation, the CPU load for active processors is :
         0 (27.5 %)      1 (14.2 %)      2 (4.3 %)       3 (35.4 %)
         4 (6.2 %)       5 (6.6 %)       6 (99.8 %)      7 (49.2 %)
         8 (5.1 %)       9 (5.0 %)      10 (3.9 %)      11 (5.4 %)
        12 (20.1 %)     13 (5.1 %)      14 (14.1 %)     15 (10.5 %)
        16 (13.9 %)     17 (5.6 %)      18 (58.9 %)     19 (92.7 %)
        20 (39.1 %)     21 (4.5 %)      22 (17.4 %)     23 (13.5 %)
        24 (100.0 %)    25 (11.0 %)     26 (45.5 %)     27 (1.9 %)
        28 (13.0 %)     29 (100.0 %)    30 (16.2 %)     31 (40.7 %)
        32 (5.0 %)      33 (10.3 %)     34 (70.8 %)     35 (6.0 %)
        36 (22.5 %)     37 (12.0 %)     38 (64.7 %)     39 (25.6 %)
        40 (100.0 %)    41 (6.5 %)      42 (11.9 %)     43 (4.1 %)
        44 (3.3 %)      45 (4.5 %)      46 (10.1 %)     47 (22.5 %)
        Total: 1266.3%
Initial condition solution time: CPU = 2.649 ms, elapsed = 2.65217 ms.
Intrinsic tran analysis time:    CPU = 502.291 ms, elapsed = 503.695 ms.
Total time required for tran analysis `tran': CPU = 506.696 ms, elapsed = 508.766 ms, util. = 99.6%.
Time accumulated: CPU = 4.51363 s, elapsed = 5.29256 s.
Peak resident memory used = 213 Mbytes.


Notice from spectre during transient analysis `tran', during Monte Carlo analysis `mc1'.
    34 warnings suppressed.

finalTimeOP: writing operating point information to rawfile.

Opening the PSF file ../psf/mc1_separate/033/finalTimeOP.info ...
modelParameter: writing model parameter values to rawfile.

Opening the PSF file ../psf/mc1_separate/033/modelParameter.info ...
element: writing instance parameter values to rawfile.

Opening the PSF file ../psf/mc1_separate/033/element.info ...
outputParameter: writing output parameter values to rawfile.

Opening the PSF file ../psf/mc1_separate/033/outputParameter.info ...
designParamVals: writing netlist parameters to rawfile.

Opening the PSFASCII file ../psf/mc1_separate/033/designParamVals.info ...
primitives: writing primitives to rawfile.

Opening the PSFASCII file ../psf/mc1_separate/033/primitives.info.primitives ...
subckts: writing subcircuits to rawfile.

Opening the PSFASCII file ../psf/mc1_separate/033/subckts.info.subckts ...
    mc1: iteration = 33            (50 %), step = 1            (8.33 %)
34  58.33% 

*****************************************************************************************
* 
* INFO: AMS_processOption = C35B4C3
* 
* INFO: Valid Modules  PIP VG5 HIRES
* 
*****************************************************************************************


******************
DC Analysis `dcOp'
******************

Opening the PSF file ../psf/mc1_separate/034/dcOp.dc ...
Important parameter values:
    reltol = 100e-06
    abstol(V) = 1 uV
    abstol(I) = 1 pA
    temp = 27 C
    tnom = 27 C
    tempeffects = all
    gmindc = 1 pS
    rabsshort = 1 mOhm

Notice from spectre during DC analysis `dcOp', during Monte Carlo analysis `mc1'.
    Bad pivoting is found during DC analysis. Option dc_pivot_check=yes is recommended for possible improvement of convergence.


Maximum value achieved for any signal of each quantity: 
V: V(net2) = 3.3 V
I: I(V0:p) = 6.187 uA
Maximum value of each quantity, excluding Verilog-A modules or dangling current sources:
V: V(net1) = 1.6 V
I: I(V0:p) = 6.187 uA

Warning from spectre during check, during DC analysis `dcOp', during Monte Carlo analysis `mc1'.
    WARNING (CMI-2943): Parameter checks have been ignored because the valid value for parameter 'trise' could not be found in 'C1'.
    WARNING (CMI-2943): Parameter checks have been ignored because the valid value for parameter 'trise' could not be found in 'I0.R2.CM'.
    WARNING (CMI-2943): Parameter checks have been ignored because the valid value for parameter 'trise' could not be found in 'I0.R2.CS1'.
    WARNING (CMI-2943): Parameter checks have been ignored because the valid value for parameter 'trise' could not be found in 'I0.R2.CS0'.
    WARNING (CMI-2943): Parameter checks have been ignored because the valid value for parameter 'trise' could not be found in 'I0.C8<3>.C1'.
        Further occurrences of this warning will be suppressed.

Convergence achieved in 17 iterations.
DC simulation time: CPU = 5.244 ms, elapsed = 6.37412 ms.
Total time required for dc analysis `dcOp': CPU = 5.618 ms, elapsed = 6.86407 ms, util. = 81.8%.
Time accumulated: CPU = 4.5595 s, elapsed = 5.3491 s.
Peak resident memory used = 213 Mbytes.


Notice from spectre during Monte Carlo analysis `mc1'.
    34 warnings suppressed.

dcOpInfo: writing operating point information to rawfile.

Opening the PSF file ../psf/mc1_separate/034/dcOpInfo.info ...

************************************************
Transient Analysis `tran': time = (0 s -> 40 ms)
************************************************

Opening the PSF file ../psf/mc1_separate/034/tran.tran.tran ...

Notice from spectre during IC analysis, during transient analysis `tran', during Monte Carlo analysis `mc1'.
    Bad pivoting is found during DC analysis. Option dc_pivot_check=yes is recommended for possible improvement of convergence.
Warning from spectre during check, during IC analysis, during transient analysis `tran', during Monte Carlo analysis `mc1'.
    WARNING (CMI-2943): Parameter checks have been ignored because the valid value for parameter 'trise' could not be found in 'C1'.
    WARNING (CMI-2943): Parameter checks have been ignored because the valid value for parameter 'trise' could not be found in 'I0.R2.CM'.
    WARNING (CMI-2943): Parameter checks have been ignored because the valid value for parameter 'trise' could not be found in 'I0.R2.CS1'.
    WARNING (CMI-2943): Parameter checks have been ignored because the valid value for parameter 'trise' could not be found in 'I0.R2.CS0'.
    WARNING (CMI-2943): Parameter checks have been ignored because the valid value for parameter 'trise' could not be found in 'I0.C8<3>.C1'.
        Further occurrences of this warning will be suppressed.

Convergence achieved in 17 iterations.
DC simulation time: CPU = 2.582 ms, elapsed = 2.58207 ms.
Important parameter values:
    start = 0 s
    outputstart = 0 s
    stop = 40 ms
    step = 40 us
    maxstep = 400 us
    ic = all
    useprevic = no
    skipdc = no
    reltol = 10e-06
    abstol(V) = 1 uV
    abstol(I) = 1 pA
    temp = 27 C
    tnom = 27 C
    tempeffects = all
    errpreset = conservative
    method = gear2only
    lteratio = 10
    relref = alllocal
    cmin = 0 F
    gmin = 1 pS
    rabsshort = 1 mOhm


Notice from spectre during transient analysis `tran', during Monte Carlo analysis `mc1'.
    Multithreading is disabled due to the size of the design being too small.


Output and IC/nodeset summary:
                 save   8       (current)
                 save   83      (voltage)

    tran: time = 1.021 ms    (2.55 %), step = 48.44 us     (121 m%)
    tran: time = 3.035 ms    (7.59 %), step = 47.4 us      (119 m%)
    tran: time = 5.002 ms    (12.5 %), step = 50 us        (125 m%)
    tran: time = 7.015 ms    (17.5 %), step = 48.97 us     (122 m%)
    tran: time = 9.029 ms    (22.6 %), step = 47.82 us     (120 m%)
    tran: time = 11.04 ms    (27.6 %), step = 46.92 us     (117 m%)
    tran: time = 13.01 ms    (32.5 %), step = 49.53 us     (124 m%)
    tran: time = 15.02 ms    (37.6 %), step = 48.3 us      (121 m%)
    tran: time = 17.04 ms    (42.6 %), step = 47.29 us     (118 m%)
    tran: time = 19 ms       (47.5 %), step = 50 us        (125 m%)
    tran: time = 21.02 ms    (52.5 %), step = 48.82 us     (122 m%)
    tran: time = 23.03 ms    (57.6 %), step = 47.7 us      (119 m%)
[...]
        Total: 1351.2%
Initial condition solution time: CPU = 2.71 ms, elapsed = 2.71297 ms.
Intrinsic tran analysis time:    CPU = 491.461 ms, elapsed = 493.146 ms.
Total time required for tran analysis `tran': CPU = 495.926 ms, elapsed = 498.263 ms, util. = 99.5%.
Time accumulated: CPU = 6.73473 s, elapsed = 7.57521 s.
Peak resident memory used = 214 Mbytes.


Notice from spectre during transient analysis `tran', during Monte Carlo analysis `mc1'.
    34 warnings suppressed.

finalTimeOP: writing operating point information to rawfile.

Opening the PSF file ../psf/mc1_separate/037/finalTimeOP.info ...
modelParameter: writing model parameter values to rawfile.

Opening the PSF file ../psf/mc1_separate/037/modelParameter.info ...
element: writing instance parameter values to rawfile.

Opening the PSF file ../psf/mc1_separate/037/element.info ...
outputParameter: writing output parameter values to rawfile.

Opening the PSF file ../psf/mc1_separate/037/outputParameter.info ...
designParamVals: writing netlist parameters to rawfile.

Opening the PSFASCII file ../psf/mc1_separate/037/designParamVals.info ...
primitives: writing primitives to rawfile.

Opening the PSFASCII file ../psf/mc1_separate/037/primitives.info.primitives ...
subckts: writing subcircuits to rawfile.

Opening the PSFASCII file ../psf/mc1_separate/037/subckts.info.subckts ...
    mc1: iteration = 37          (83.3 %), step = 1            (8.33 %)
38  91.67% 

*****************************************************************************************
* 
* INFO: AMS_processOption = C35B4C3
* 
* INFO: Valid Modules  PIP VG5 HIRES
* 
*****************************************************************************************


******************
DC Analysis `dcOp'
******************

Opening the PSF file ../psf/mc1_separate/038/dcOp.dc ...
Important parameter values:
    reltol = 100e-06
    abstol(V) = 1 uV
    abstol(I) = 1 pA
    temp = 27 C
    tnom = 27 C
    tempeffects = all
    gmindc = 1 pS
    rabsshort = 1 mOhm

Notice from spectre during DC analysis `dcOp', during Monte Carlo analysis `mc1'.
    Bad pivoting is found during DC analysis. Option dc_pivot_check=yes is recommended for possible improvement of convergence.


Maximum value achieved for any signal of each quantity: 
V: V(net2) = 3.3 V
I: I(V0:p) = 6.384 uA
Maximum value of each quantity, excluding Verilog-A modules or dangling current sources:
V: V(vout_filt) = 1.601 V
I: I(V0:p) = 6.384 uA

Warning from spectre during check, during DC analysis `dcOp', during Monte Carlo analysis `mc1'.
    WARNING (CMI-2943): Parameter checks have been ignored because the valid value for parameter 'trise' could not be found in 'C1'.
    WARNING (CMI-2943): Parameter checks have been ignored because the valid value for parameter 'trise' could not be found in 'I0.R2.CM'.
    WARNING (CMI-2943): Parameter checks have been ignored because the valid value for parameter 'trise' could not be found in 'I0.R2.CS1'.
    WARNING (CMI-2943): Parameter checks have been ignored because the valid value for parameter 'trise' could not be found in 'I0.R2.CS0'.
    WARNING (CMI-2943): Parameter checks have been ignored because the valid value for parameter 'trise' could not be found in 'I0.C8<3>.C1'.
        Further occurrences of this warning will be suppressed.

Convergence achieved in 17 iterations.
DC simulation time: CPU = 5.967 ms, elapsed = 7.46608 ms.
Total time required for dc analysis `dcOp': CPU = 6.421 ms, elapsed = 7.91788 ms, util. = 81.1%.
Time accumulated: CPU = 6.78123 s, elapsed = 7.63278 s.
Peak resident memory used = 214 Mbytes.


Notice from spectre during Monte Carlo analysis `mc1'.
    34 warnings suppressed.

dcOpInfo: writing operating point information to rawfile.

Opening the PSF file ../psf/mc1_separate/038/dcOpInfo.info ...

************************************************
Transient Analysis `tran': time = (0 s -> 40 ms)
************************************************

Opening the PSF file ../psf/mc1_separate/038/tran.tran.tran ...

Notice from spectre during IC analysis, during transient analysis `tran', during Monte Carlo analysis `mc1'.
    Bad pivoting is found during DC analysis. Option dc_pivot_check=yes is recommended for possible improvement of convergence.
Warning from spectre during check, during IC analysis, during transient analysis `tran', during Monte Carlo analysis `mc1'.
    WARNING (CMI-2943): Parameter checks have been ignored because the valid value for parameter 'trise' could not be found in 'C1'.
    WARNING (CMI-2943): Parameter checks have been ignored because the valid value for parameter 'trise' could not be found in 'I0.R2.CM'.
    WARNING (CMI-2943): Parameter checks have been ignored because the valid value for parameter 'trise' could not be found in 'I0.R2.CS1'.
    WARNING (CMI-2943): Parameter checks have been ignored because the valid value for parameter 'trise' could not be found in 'I0.R2.CS0'.
    WARNING (CMI-2943): Parameter checks have been ignored because the valid value for parameter 'trise' could not be found in 'I0.C8<3>.C1'.
        Further occurrences of this warning will be suppressed.

Convergence achieved in 17 iterations.
DC simulation time: CPU = 2.656 ms, elapsed = 2.65694 ms.
Important parameter values:
    start = 0 s
    outputstart = 0 s
    stop = 40 ms
    step = 40 us
    maxstep = 400 us
    ic = all
    useprevic = no
    skipdc = no
    reltol = 10e-06
    abstol(V) = 1 uV
    abstol(I) = 1 pA
    temp = 27 C
    tnom = 27 C
    tempeffects = all
    errpreset = conservative
    method = gear2only
    lteratio = 10
    relref = alllocal
    cmin = 0 F
    gmin = 1 pS
    rabsshort = 1 mOhm


Notice from spectre during transient analysis `tran', during Monte Carlo analysis `mc1'.
    Multithreading is disabled due to the size of the design being too small.


Output and IC/nodeset summary:
                 save   8       (current)
                 save   83      (voltage)

    tran: time = 1.028 ms    (2.57 %), step = 47.88 us     (120 m%)
    tran: time = 3.042 ms     (7.6 %), step = 46.96 us     (117 m%)
    tran: time = 5.009 ms    (12.5 %), step = 49.57 us     (124 m%)
    tran: time = 7.022 ms    (17.6 %), step = 48.32 us     (121 m%)
    tran: time = 9.036 ms    (22.6 %), step = 47.29 us     (118 m%)
    tran: time = 11 ms       (27.5 %), step = 50 us        (125 m%)
    tran: time = 13.02 ms    (32.5 %), step = 48.78 us     (122 m%)
    tran: time = 15.03 ms    (37.6 %), step = 47.66 us     (119 m%)
    tran: time = 17.04 ms    (42.6 %), step = 46.79 us     (117 m%)
    tran: time = 19.01 ms    (47.5 %), step = 49.27 us     (123 m%)
    tran: time = 21.03 ms    (52.6 %), step = 48.07 us     (120 m%)
    tran: time = 23.04 ms    (57.6 %), step = 47.1 us      (118 m%)
    tran: time = 25.01 ms    (62.5 %), step = 49.82 us     (125 m%)
    tran: time = 27.02 ms    (67.5 %), step = 48.52 us     (121 m%)
    tran: time = 29.03 ms    (72.6 %), step = 47.46 us     (119 m%)
    tran: time = 31 ms       (77.5 %), step = 50 us        (125 m%)
    tran: time = 33.01 ms    (82.5 %), step = 49.01 us     (123 m%)
    tran: time = 35.03 ms    (87.6 %), step = 47.84 us     (120 m%)
    tran: time = 37.04 ms    (92.6 %), step = 46.93 us     (117 m%)
    tran: time = 39.01 ms    (97.5 %), step = 49.51 us     (124 m%)
Number of accepted tran steps =             851

Maximum value achieved for any signal of each quantity: 
V: V(net2) = 3.3 V
I: I(V0:p) = 6.384 uA
Maximum value of each quantity, excluding Verilog-A modules or dangling current sources:
V: V(vout_filt) = 1.614 V
I: I(V0:p) = 6.384 uA

~~~~~~~~~~~~~~~~~~~~~~~~~~~~~~~~~
Post-Transient Simulation Summary
~~~~~~~~~~~~~~~~~~~~~~~~~~~~~~~~~
   -   To further speed up simulation, consider
          add ++aps on command line
   -   Non-default settings that could significantly slow down simulation
          errpreset = conservative, default moderate
          reltol = 10e-06, default 100e-06 (conservative)
~~~~~~~~~~~~~~~~~~~~~~~~~~~~~~~~~


During simulation, the CPU load for active processors is :
         0 (20.4 %)      1 (11.7 %)      2 (5.3 %)       3 (24.4 %)
         4 (6.7 %)       5 (6.3 %)       6 (99.8 %)      7 (53.9 %)
         8 (17.3 %)      9 (4.8 %)      10 (12.2 %)     11 (12.7 %)
        12 (15.3 %)     13 (5.1 %)      14 (13.2 %)     15 (34.6 %)
        16 (14.5 %)     17 (4.5 %)      18 (46.6 %)     19 (92.5 %)
        20 (45.5 %)     21 (11.2 %)     22 (15.4 %)     23 (17.0 %)
        24 (99.9 %)     25 (28.2 %)     26 (33.8 %)     27 (1.6 %)
        28 (14.2 %)     29 (99.9 %)     30 (33.2 %)     31 (27.0 %)
        32 (4.9 %)      33 (7.7 %)      34 (69.7 %)     35 (11.0 %)
        36 (26.0 %)     37 (12.6 %)     38 (47.0 %)     39 (50.0 %)
        40 (100.0 %)    41 (11.4 %)     42 (10.2 %)     43 (5.6 %)
        44 (3.4 %)      45 (4.3 %)      46 (31.7 %)     47 (18.2 %)
        Total: 1342.3%
Initial condition solution time: CPU = 2.691 ms, elapsed = 2.69198 ms.
Intrinsic tran analysis time:    CPU = 488.672 ms, elapsed = 490.137 ms.
Total time required for tran analysis `tran': CPU = 493.315 ms, elapsed = 495.287 ms, util. = 99.6%.
Time accumulated: CPU = 7.28159 s, elapsed = 8.13738 s.
Peak resident memory used = 214 Mbytes.


Notice from spectre during transient analysis `tran', during Monte Carlo analysis `mc1'.
    34 warnings suppressed.

finalTimeOP: writing operating point information to rawfile.

Opening the PSF file ../psf/mc1_separate/038/finalTimeOP.info ...
modelParameter: writing model parameter values to rawfile.

Opening the PSF file ../psf/mc1_separate/038/modelParameter.info ...
element: writing instance parameter values to rawfile.

Opening the PSF file ../psf/mc1_separate/038/element.info ...
outputParameter: writing output parameter values to rawfile.

Opening the PSF file ../psf/mc1_separate/038/outputParameter.info ...
designParamVals: writing netlist parameters to rawfile.

Opening the PSFASCII file ../psf/mc1_separate/038/designParamVals.info ...
primitives: writing primitives to rawfile.

Opening the PSFASCII file ../psf/mc1_separate/038/primitives.info.primitives ...
subckts: writing subcircuits to rawfile.

Opening the PSFASCII file ../psf/mc1_separate/038/subckts.info.subckts ...
    mc1: iteration = 38          (91.7 %), step = 1            (8.33 %)
39 100.00% 

*****************************************************************************************
* 
* INFO: AMS_processOption = C35B4C3
* 
* INFO: Valid Modules  PIP VG5 HIRES
* 
*****************************************************************************************


******************
DC Analysis `dcOp'
******************

Opening the PSF file ../psf/mc1_separate/039/dcOp.dc ...
Important parameter values:
    reltol = 100e-06
    abstol(V) = 1 uV
    abstol(I) = 1 pA
    temp = 27 C
    tnom = 27 C
    tempeffects = all
    gmindc = 1 pS
    rabsshort = 1 mOhm

Notice from spectre during DC analysis `dcOp', during Monte Carlo analysis `mc1'.
    Bad pivoting is found during DC analysis. Option dc_pivot_check=yes is recommended for possible improvement of convergence.


Maximum value achieved for any signal of each quantity: 
V: V(net2) = 3.3 V
I: I(V0:p) = 6.537 uA
Maximum value of each quantity, excluding Verilog-A modules or dangling current sources:
V: V(net1) = 1.6 V
I: I(V0:p) = 6.537 uA

Warning from spectre during check, during DC analysis `dcOp', during Monte Carlo analysis `mc1'.
    WARNING (CMI-2943): Parameter checks have been ignored because the valid value for parameter 'trise' could not be found in 'C1'.
    WARNING (CMI-2943): Parameter checks have been ignored because the valid value for parameter 'trise' could not be found in 'I0.R2.CM'.
    WARNING (CMI-2943): Parameter checks have been ignored because the valid value for parameter 'trise' could not be found in 'I0.R2.CS1'.
    WARNING (CMI-2943): Parameter checks have been ignored because the valid value for parameter 'trise' could not be found in 'I0.R2.CS0'.
    WARNING (CMI-2943): Parameter checks have been ignored because the valid value for parameter 'trise' could not be found in 'I0.C8<3>.C1'.
        Further occurrences of this warning will be suppressed.

Convergence achieved in 19 iterations.
DC simulation time: CPU = 5.334 ms, elapsed = 6.35004 ms.
Total time required for dc analysis `dcOp': CPU = 5.739 ms, elapsed = 6.75511 ms, util. = 85%.
Time accumulated: CPU = 7.32694 s, elapsed = 8.19314 s.
Peak resident memory used = 214 Mbytes.


Notice from spectre during Monte Carlo analysis `mc1'.
    34 warnings suppressed.

dcOpInfo: writing operating point information to rawfile.

Opening the PSF file ../psf/mc1_separate/039/dcOpInfo.info ...

************************************************
Transient Analysis `tran': time = (0 s -> 40 ms)
************************************************

Opening the PSF file ../psf/mc1_separate/039/tran.tran.tran ...

Notice from spectre during IC analysis, during transient analysis `tran', during Monte Carlo analysis `mc1'.
    Bad pivoting is found during DC analysis. Option dc_pivot_check=yes is recommended for possible improvement of convergence.
Warning from spectre during check, during IC analysis, during transient analysis `tran', during Monte Carlo analysis `mc1'.
    WARNING (CMI-2943): Parameter checks have been ignored because the valid value for parameter 'trise' could not be found in 'C1'.
    WARNING (CMI-2943): Parameter checks have been ignored because the valid value for parameter 'trise' could not be found in 'I0.R2.CM'.
    WARNING (CMI-2943): Parameter checks have been ignored because the valid value for parameter 'trise' could not be found in 'I0.R2.CS1'.
    WARNING (CMI-2943): Parameter checks have been ignored because the valid value for parameter 'trise' could not be found in 'I0.R2.CS0'.
    WARNING (CMI-2943): Parameter checks have been ignored because the valid value for parameter 'trise' could not be found in 'I0.C8<3>.C1'.
        Further occurrences of this warning will be suppressed.

Convergence achieved in 19 iterations.
DC simulation time: CPU = 2.702 ms, elapsed = 2.70295 ms.
Important parameter values:
    start = 0 s
    outputstart = 0 s
    stop = 40 ms
    step = 40 us
    maxstep = 400 us
    ic = all
    useprevic = no
    skipdc = no
    reltol = 10e-06
    abstol(V) = 1 uV
    abstol(I) = 1 pA
    temp = 27 C
    tnom = 27 C
    tempeffects = all
    errpreset = conservative
    method = gear2only
    lteratio = 10
    relref = alllocal
    cmin = 0 F
    gmin = 1 pS
    rabsshort = 1 mOhm


Notice from spectre during transient analysis `tran', during Monte Carlo analysis `mc1'.
    Multithreading is disabled due to the size of the design being too small.


Output and IC/nodeset summary:
                 save   8       (current)
                 save   83      (voltage)

    tran: time = 1.019 ms    (2.55 %), step = 48.62 us     (122 m%)
    tran: time = 3.032 ms    (7.58 %), step = 47.57 us     (119 m%)
    tran: time = 5.045 ms    (12.6 %), step = 46.74 us     (117 m%)
    tran: time = 7.012 ms    (17.5 %), step = 49.26 us     (123 m%)
    tran: time = 9.025 ms    (22.6 %), step = 48.11 us     (120 m%)
    tran: time = 11.04 ms    (27.6 %), step = 47.16 us     (118 m%)
    tran: time = 13 ms       (32.5 %), step = 49.98 us     (125 m%)
    tran: time = 15.02 ms    (37.5 %), step = 48.7 us      (122 m%)
    tran: time = 17.03 ms    (42.6 %), step = 47.62 us     (119 m%)
    tran: time = 19.04 ms    (47.6 %), step = 46.79 us     (117 m%)
    tran: time = 21.01 ms    (52.5 %), step = 49.34 us     (123 m%)
    tran: time = 23.02 ms    (57.6 %), step = 48.17 us     (120 m%)
    tran: time = 25.04 ms    (62.6 %), step = 47.21 us     (118 m%)
    tran: time = 27 ms       (67.5 %), step = 50 us        (125 m%)
    tran: time = 29.02 ms    (72.5 %), step = 48.76 us     (122 m%)
    tran: time = 31.03 ms    (77.6 %), step = 47.68 us     (119 m%)
    tran: time = 33.04 ms    (82.6 %), step = 46.83 us     (117 m%)
    tran: time = 35.01 ms    (87.5 %), step = 49.41 us     (124 m%)
    tran: time = 37.02 ms    (92.6 %), step = 48.23 us     (121 m%)
    tran: time = 39.04 ms    (97.6 %), step = 47.26 us     (118 m%)
Number of accepted tran steps =             852

Maximum value achieved for any signal of each quantity: 
V: V(net2) = 3.3 V
I: I(V0:p) = 6.537 uA
Maximum value of each quantity, excluding Verilog-A modules or dangling current sources:
V: V(vout_filt) = 1.612 V
I: I(V0:p) = 6.537 uA

~~~~~~~~~~~~~~~~~~~~~~~~~~~~~~~~~
Post-Transient Simulation Summary
~~~~~~~~~~~~~~~~~~~~~~~~~~~~~~~~~
   -   To further speed up simulation, consider
          add ++aps on command line
   -   Non-default settings that could significantly slow down simulation
          errpreset = conservative, default moderate
          reltol = 10e-06, default 100e-06 (conservative)
~~~~~~~~~~~~~~~~~~~~~~~~~~~~~~~~~


During simulation, the CPU load for active processors is :
         0 (19.3 %)      1 (11.1 %)      2 (5.0 %)       3 (23.0 %)
         4 (6.4 %)       5 (6.0 %)       6 (99.8 %)      7 (50.5 %)
         8 (16.4 %)      9 (4.6 %)      10 (11.5 %)     11 (11.9 %)
        12 (14.8 %)     13 (5.2 %)      14 (13.8 %)     15 (37.1 %)
        16 (14.1 %)     17 (4.2 %)      18 (43.7 %)     19 (88.8 %)
        20 (42.8 %)     21 (16.9 %)     22 (16.2 %)     23 (16.8 %)
        24 (99.9 %)     25 (30.8 %)     26 (32.8 %)     27 (2.8 %)
        28 (19.7 %)     29 (98.3 %)     30 (31.3 %)     31 (30.8 %)
        32 (4.8 %)      33 (7.3 %)      34 (65.3 %)     35 (10.4 %)
        36 (27.3 %)     37 (13.5 %)     38 (44.0 %)     39 (46.8 %)
        40 (100.0 %)    41 (10.9 %)     42 (10.3 %)     43 (5.6 %)
        44 (9.7 %)      45 (4.9 %)      46 (29.9 %)     47 (17.8 %)
        Total: 1334.8%
Initial condition solution time: CPU = 2.741 ms, elapsed = 2.74301 ms.
Intrinsic tran analysis time:    CPU = 491.967 ms, elapsed = 493.446 ms.
Total time required for tran analysis `tran': CPU = 496.622 ms, elapsed = 498.691 ms, util. = 99.6%.
Time accumulated: CPU = 7.8302 s, elapsed = 8.70072 s.
Peak resident memory used = 214 Mbytes.


Notice from spectre during transient analysis `tran', during Monte Carlo analysis `mc1'.
    34 warnings suppressed.

finalTimeOP: writing operating point information to rawfile.

Opening the PSF file ../psf/mc1_separate/039/finalTimeOP.info ...
modelParameter: writing model parameter values to rawfile.

Opening the PSF file ../psf/mc1_separate/039/modelParameter.info ...
element: writing instance parameter values to rawfile.

Opening the PSF file ../psf/mc1_separate/039/element.info ...
outputParameter: writing output parameter values to rawfile.

Opening the PSF file ../psf/mc1_separate/039/outputParameter.info ...
designParamVals: writing netlist parameters to rawfile.

Opening the PSFASCII file ../psf/mc1_separate/039/designParamVals.info ...
primitives: writing primitives to rawfile.

Opening the PSFASCII file ../psf/mc1_separate/039/primitives.info.primitives ...
subckts: writing subcircuits to rawfile.

Opening the PSFASCII file ../psf/mc1_separate/039/subckts.info.subckts ...
    mc1: iteration = 39           (100 %), step = 1            (8.33 %)
Total time required for montecarlo analysis `mc1': CPU = 7.3775 s, elapsed = 7.60391 s, util. = 97%.
Time accumulated: CPU = 7.85724 s, elapsed = 8.73985 s.
Peak resident memory used = 214 Mbytes.

Licensing Information:
Lic Summary:
[10:46:07.118729] Cdslmd servers:3000@lic08.ug.kth.se:29000@lic06.ug.kth.se
[10:46:07.643064] Feature usage summary:
[10:46:07.643067] Virtuoso_Multi_mode_Simulation


Aggregate audit (10:46:07 AM, Thur Apr 16, 2026):
Time used: CPU = 7.87 s, elapsed = 8.76 s, util. = 89.9%.
Time spent in licensing: elapsed = 219 ms.
Peak memory used = 214 Mbytes.
Simulation started at: 10:45:58 AM, Thur Apr 16, 2026, ended at: 10:46:07 AM, Thur Apr 16, 2026, with elapsed time (wall clock): 8.76 s.
spectre completes with 0 errors, 147 warnings, and 72 notices.
